*Heading
** Job name: Job-1Model-1V1 Model name: Model-1V1
** Generated by: Abaqus/CAE 2022
*Preprint, echo=NO, model=NO, history=NO, contact=NO
**
** PARTS
**
*Part, name=Plate
*Node
      1,     0.035379, 0.0130000003
      2,  0.033926785, 0.0148755973
      3,  0.033926785, 0.0141244028
      4,     0.035379, 0.00549999997
      5,  0.033926785, 0.00782494247
      6,  0.033926785, 0.00459291227
      7,  0.033926785, 0.0103755975
      8,     0.035379, 0.00850000046
      9,  0.033926785, 0.00962440297
     10,  0.033926785, 0.00374999992
     11, 0.0374267846, 0.00380498543
     12, 0.0374267846, 0.0161950141
     13,  0.033926785, 0.0162499994
     14, 0.0894745737, 0.0130000003
     15, 0.0909267887, 0.0141244028
     16, 0.0909267887, 0.0148755973
     17, 0.0894745737, 0.00850000046
     18, 0.0909267887, 0.00962440297
     19, 0.0909267887, 0.0103755975
     20, 0.0909267887, 0.00459291227
** ... 1623 like lines cut
*********************** TRIANGULAR ****************************
** ------------------- Displacement ---------------------------
*User element, nodes=3, type=U1, properties=12, coordinates=2, VARIABLES=34
1,2
** -------------------- Phase  field --------------------------
*User element, nodes=3, type=U3, properties=5, coordinates=2, VARIABLES=5
3
***************************************************************
***************************************************************
*Element, type=U1
1, 827,   1, 115
2, 830, 827, 828
3, 829, 828, 118
4, 830, 828, 829
5, 829,   2, 826
6, 826,   2, 120
7, 830,   1, 827
8, 826, 120, 3
9, 826,   3, 121
10, 828, 827, 116
11, 827, 115, 116
12, 828, 116, 117
13, 828, 117, 118
14, 829, 118, 119
15, 829, 119, 2
16, 830, 829, 826
17, 830, 826, 121
18, 830, 121, 1
19, 124, 125, 4
20, 124,   4, 122
** ... 2905 like lines cut
***************************************************************
*Element, type=U3
2926, 827,   1, 115
2927, 830, 827, 828
2928, 829, 828, 118
2929, 830, 828, 829
2930, 829,   2, 826
2931, 826,   2, 120
2932, 830,   1, 827
2933, 826, 120, 3
2934, 826,   3, 121
2935, 828, 827, 116
2936, 827, 115, 116
2937, 828, 116, 117
2938, 828, 117, 118
2939, 829, 118, 119
2940, 829, 119, 2
2941, 830, 829, 826
2942, 830, 826, 121
2943, 830, 121, 1
2944, 124, 125, 4
2945, 124,   4, 122
** ... 2905 like lines cut
***************************************************************
*Element, type=CPE3
5851, 827,   1, 115
5852, 830, 827, 828
5853, 829, 828, 118
5854, 830, 828, 829
5855, 829,   2, 826
5856, 826,   2, 120
5857, 830,   1, 827
5858, 826, 120, 3
5859, 826,   3, 121
5860, 828, 827, 116
5861, 827, 115, 116
5862, 828, 116, 117
5863, 828, 117, 118
5864, 829, 118, 119
5865, 829, 119, 2
5866, 830, 829, 826
5867, 830, 826, 121
5868, 830, 121, 1
5869, 124, 125, 4
5870, 124,   4, 122
** ... 2905 like lines cut
***************************************************************
*Element, type=COH2D4
8776, 1539,   27,   27, 165
8777, 1540, 1539,  165, 166
8778, 1541, 1540,  166, 167
8779, 1542, 1541,  167, 168
8780, 1543, 1542,  168, 169
8781, 1544, 1543,  169, 170
8782, 1545, 1544,  170, 171
8783, 27, 1545,  171, 27
8784, 1546,   28,   28, 172
8785, 1547, 1546,  172, 173
8786, 1548, 1547,  173, 174
8787, 1549, 1548,  174, 175
8788, 1550, 1549,  175, 176
8789, 1551, 1550,  176, 177
8790, 1552, 1551,  177, 178
8791, 28, 1552,  178, 28
8792, 1553,   31,   31, 183
8793, 1554, 1553,  183, 184
8794, 1555, 1554,  184, 185
8795, 1556, 1555,  185, 186
** ... 100 like lines cut
***************************************************************
********************** ASSIGNING MATERIAL PROP ****************
*Nset, nset=Uel_Set-MatrixCenter
   27,   28,   29,   30,   37,   38,   46,   47,  165,  166,  167,  168,  169,  170,  171,  172
  173,  174,  175,  176,  177,  178,  179,  180,  181,  238,  239,  289,  290,  291,  292,  293
  777,  778,  779,  780,  781,  782,  783,  784, 1325, 1326, 1327, 1328, 1329, 1330, 1331, 1332
 1333, 1334, 1335, 1336, 1337, 1338, 1339, 1340, 1341, 1538
*Elset, elset=Uel_Set-MatrixCenter
 2095, 2096, 2097, 2098, 2099, 2100, 2101, 2102, 2103, 2104, 2105, 2106, 2107, 2108, 2109, 2110
 2111, 2112, 2113, 2114, 2115, 2116, 2117, 2118, 2119, 2120, 2121, 2122, 2123, 2124, 2125, 2126
 2127, 2128, 2129, 2130, 2131, 2132, 2133, 2134, 2135, 2136, 2137, 2138, 2139, 2140, 2141, 2142
 2143, 2144, 2145, 2146, 2147, 2148, 2149, 2150, 2151, 2152, 2153, 2154, 2155, 2156, 2157, 2158
 2159, 2160, 2161, 2162, 2163, 2164, 2165, 2166, 2167, 2168, 2169, 2170, 2925
*Nset, nset=Uel_Set-MatrixOut
    1,    2,    3,    4,    5,    6,    7,    8,    9,   10,   11,   12,   13,   14,   15,   16
   17,   18,   19,   20,   21,   22,   23,   24,   25,   26,   29,   30,   31,   32,   33,   34
   35,   36,   37,   38,   39,   40,   41,   42,   43,   44,   45,   46,   47,   48,   49,   50
   51,   52,   53,   54,   55,   56,   57,   58,   59,   60,   61,   62,   63,   64,   65,   66
   67,   68,   69,   70,   71,   72,   73,   74,   75,   76,   77,   78,   79,   80,   81,   82
   83,   84,   85,   86,   87,   88,   89,   90,   91,   92,   93,   94,   95,   96,   97,   98
   99,  100,  101,  102,  103,  104,  105,  106,  107,  108,  109,  110,  111,  112,  113,  114
  115,  116,  117,  118,  119,  121,  122,  123,  125,  126,  127,  128,  129,  130,  131,  132
  133,  134,  135,  136,  137,  138,  139,  140,  142,  143,  144,  145,  146,  147,  149,  150
  151,  152,  153,  154,  155,  156,  157,  158,  159,  160,  161,  162,  163,  164,  183,  184
  185,  186,  187,  188,  189,  190,  191,  192,  193,  194,  195,  196,  197,  198,  199,  200
  201,  202,  203,  204,  205,  206,  207,  208,  209,  210,  211,  212,  213,  214,  215,  216
  217,  218,  219,  220,  221,  222,  223,  224,  225,  226,  227,  228,  229,  230,  231,  232
  233,  234,  235,  236,  237,  238,  239,  240,  241,  242,  243,  244,  245,  246,  247,  248
  249,  250,  251,  252,  253,  254,  255,  256,  257,  258,  259,  260,  261,  262,  263,  264
  265,  266,  267,  268,  269,  270,  271,  272,  273,  274,  275,  276,  277,  278,  279,  280
  281,  282,  283,  284,  285,  286,  287,  288,  289,  290,  291,  292,  293,  294,  295,  296
  297,  298,  299,  300,  301,  302,  303,  304,  305,  306,  307,  308,  309,  310,  311,  312
  313,  314,  315,  316,  317,  318,  319,  320,  321,  322,  323,  324,  325,  326,  327,  328
  329,  330,  331,  332,  333,  334,  335,  336,  337,  338,  339,  340,  341,  342,  343,  344
** ... 59 like lines cut
*Elset, elset=Uel_Set-MatrixOut
   24,   25,   26,   27,   28,   29,   30,   31,   32,   33,   34,   35,   36,   37,   38,   39
   40,   41,   42,   43,   44,   45,   46,   47,   48,   49,   50,   51,   52,   53,   54,   55
   56,   57,   58,   59,   60,   61,   62,   63,  100,  101,  102,  103,  104,  105,  106,  107
  108,  109,  110,  111,  112,  113,  114,  115,  116,  117,  118,  119,  120,  121,  122,  123
  124,  125,  126,  127,  128,  129,  130,  131,  132,  133,  134,  135,  136,  137,  138,  139
  228,  229,  230,  231,  232,  233,  234,  235,  236,  237,  238,  239,  240,  241,  242,  243
  244,  245,  246,  247,  248,  249,  250,  251,  252,  253,  254,  255,  256,  257,  258,  259
  260,  261,  262,  263,  264,  265,  266,  267,  268,  269,  270,  271,  272,  273,  274,  275
  276,  277,  278,  279,  280,  281,  282,  283,  284,  285,  286,  287,  288,  289,  290,  291
  292,  293,  294,  295,  296,  297,  298,  299,  300,  301,  302,  303,  304,  305,  306,  307
  308,  309,  310,  311,  312,  313,  314,  315,  316,  317,  318,  319,  320,  321,  322,  323
  324,  325,  326,  327,  328,  329,  330,  331,  332,  333,  334,  335,  336,  337,  338,  339
  340,  341,  342,  343,  344,  345,  346,  347,  348,  349,  350,  351,  352,  353,  354,  355
  356,  357,  358,  359,  360,  361,  362,  363,  364,  365,  366,  367,  368,  369,  370,  371
  372,  373,  374,  375,  376,  377,  378,  379,  380,  381,  382,  383,  384,  385,  386,  387
  472,  473,  474,  475,  476,  477,  478,  479,  480,  481,  482,  483,  484,  485,  486,  487
  488,  489,  490,  491,  492,  493,  494,  495,  496,  497,  498,  499,  500,  501,  502,  503
  504,  505,  506,  507,  508,  509,  510,  511,  512,  513,  514,  515,  516,  517,  518,  519
  520,  521,  522,  523,  524,  525,  526,  527,  528,  529,  530,  531,  532,  533,  534,  535
  536,  537,  538,  539,  540,  541,  542,  543,  544,  545,  546,  547,  548,  549,  550,  551
** ... 98 like lines cut
*Nset, nset=Uel_Set-Particle
    1,    2,    3,    4,    5,    6,    7,    8,    9,   14,   15,   16,   17,   18,   19,   20
   21,   22,   27,   28,   29,   30,   31,   32,   33,   34,   35,   36,   39,   40,   41,   42
   43,   44,   45,   48,   49,   50,   51,   52,   53,   54,   55,   56,   57,   58,   59,   60
   61,   62,   63,   64,   65,   66,   67,   68,   69,   70,   71,   72,   73,   74,   75,   76
   77,   78,   79,   80,   81,   82,   83,   84,   85,   86,   87,   88,   89,   90,   91,   92
   93,   94,   95,   96,   97,   98,   99,  100,  101,  102,  103,  104,  105,  106,  115,  116
  117,  118,  119,  120,  121,  122,  123,  124,  125,  126,  127,  128,  129,  130,  131,  140
  141,  142,  143,  144,  145,  146,  147,  148,  149,  150,  151,  152,  153,  154,  155,  156
  179,  180,  181,  182,  218,  219,  319,  320,  321,  322,  323,  324,  325,  326,  327,  328
  329,  330,  331,  332,  333,  334,  335,  336,  337,  338,  339,  340,  341,  342,  343,  344
  345,  346,  347,  348,  349,  350,  351,  352,  353,  354,  355,  356,  357,  358,  359,  360
  361,  362,  363,  364,  365,  366,  367,  368,  369,  370,  371,  372,  373,  374,  375,  376
  377,  378,  379,  380,  381,  382,  383,  384,  385,  386,  387,  388,  389,  390,  391,  392
  393,  394,  395,  396,  397,  398,  399,  400,  401,  402,  403,  404,  405,  406,  407,  408
  409,  410,  411,  412,  413,  414,  415,  416,  417,  418,  419,  420,  421,  422,  423,  424
  425,  426,  427,  428,  429,  430,  431,  432,  433,  434,  435,  436,  437,  438,  439,  440
  441,  442,  443,  444,  445,  446,  447,  448,  449,  450,  451,  452,  453,  454,  455,  456
  457,  458,  459,  460,  461,  462,  463,  464,  465,  466,  467,  468,  469,  470,  471,  472
  473,  474,  475,  476,  477,  478,  479,  480,  481,  482,  483,  484,  485,  486,  487,  488
  489,  490,  491,  492,  493,  494,  495,  496,  497,  498,  499,  500,  501,  502,  503,  504
** ... 36 like lines cut
*Elset, elset=Uel_Set-Particle
    1,    2,    3,    4,    5,    6,    7,    8,    9,   10,   11,   12,   13,   14,   15,   16
   17,   18,   19,   20,   21,   22,   23,   64,   65,   66,   67,   68,   69,   70,   71,   72
   73,   74,   75,   76,   77,   78,   79,   80,   81,   82,   83,   84,   85,   86,   87,   88
   89,   90,   91,   92,   93,   94,   95,   96,   97,   98,   99,  140,  141,  142,  143,  144
  145,  146,  147,  148,  149,  150,  151,  152,  153,  154,  155,  156,  157,  158,  159,  160
  161,  162,  163,  164,  165,  166,  167,  168,  169,  170,  171,  172,  173,  174,  175,  176
  177,  178,  179,  180,  181,  182,  183,  184,  185,  186,  187,  188,  189,  190,  191,  192
  193,  194,  195,  196,  197,  198,  199,  200,  201,  202,  203,  204,  205,  206,  207,  208
  209,  210,  211,  212,  213,  214,  215,  216,  217,  218,  219,  220,  221,  222,  223,  224
  225,  226,  227,  388,  389,  390,  391,  392,  393,  394,  395,  396,  397,  398,  399,  400
  401,  402,  403,  404,  405,  406,  407,  408,  409,  410,  411,  412,  413,  414,  415,  416
  417,  418,  419,  420,  421,  422,  423,  424,  425,  426,  427,  428,  429,  430,  431,  432
  433,  434,  435,  436,  437,  438,  439,  440,  441,  442,  443,  444,  445,  446,  447,  448
  449,  450,  451,  452,  453,  454,  455,  456,  457,  458,  459,  460,  461,  462,  463,  464
  465,  466,  467,  468,  469,  470,  471,  688,  689,  690,  691,  692,  693,  694,  695,  696
  697,  698,  699,  700,  701,  702,  703,  704,  705,  706,  707,  708,  709,  710,  711,  712
  713,  714,  715,  716,  717,  718,  719,  720,  721,  722,  723,  724,  725,  726,  727,  728
  729,  730,  731,  732,  733,  734,  735,  736,  737,  738,  739,  740,  741,  742,  743,  744
  745,  746,  747,  748,  749,  750,  751,  752,  753,  754,  755,  756,  757,  758,  759,  760
  761,  762,  763,  764,  765,  766,  767,  768,  769,  770,  771,  772,  773,  774,  775,  776
** ... 40 like lines cut
*Elset, elset=CohesiveSeam-1-Elements, generate
8776, 8895, 1, 
*Nset, nset=CohesiveSeam-1-TopNodes
   27,   28,   31,   32,   33,   34,   35,   39,   40,   41,   42,   43,   44,   45,   48,  165
  166,  167,  168,  169,  170,  171,  172,  173,  174,  175,  176,  177,  178,  183,  184,  185
  186,  187,  188,  189,  190,  191,  192,  193,  194,  195,  196,  197,  198,  199,  200,  201
  202,  203,  204,  205,  206,  207,  208,  209,  210,  211,  212,  213,  214,  215,  216,  217
  240,  241,  242,  243,  244,  245,  246,  247,  248,  249,  250,  251,  252,  253,  254,  255
  256,  257,  258,  259,  260,  261,  262,  263,  264,  265,  266,  267,  268,  269,  270,  271
  272,  273,  274,  275,  276,  277,  278,  279,  280,  281,  282,  283,  284,  285,  286,  287
  288, 1637, 1638, 1639, 1640, 1641, 1642, 1643
*Nset, nset=CohesiveSeam-1-BottomNodes
   27,   28,   31,   32,   33,   34,   35,   39,   40,   41,   42,   43,   44,   45,   48,  312
  313,  314,  315,  316,  317,  318, 1539, 1540, 1541, 1542, 1543, 1544, 1545, 1546, 1547, 1548
 1549, 1550, 1551, 1552, 1553, 1554, 1555, 1556, 1557, 1558, 1559, 1560, 1561, 1562, 1563, 1564
 1565, 1566, 1567, 1568, 1569, 1570, 1571, 1572, 1573, 1574, 1575, 1576, 1577, 1578, 1579, 1580
 1581, 1582, 1583, 1584, 1585, 1586, 1587, 1588, 1589, 1590, 1591, 1592, 1593, 1594, 1595, 1596
 1597, 1598, 1599, 1600, 1601, 1602, 1603, 1604, 1605, 1606, 1607, 1608, 1609, 1610, 1611, 1612
 1613, 1614, 1615, 1616, 1617, 1618, 1619, 1620, 1621, 1622, 1623, 1624, 1625, 1626, 1627, 1628
 1629, 1630, 1631, 1632, 1633, 1634, 1635, 1636
*Nset, nset=CohesiveSeam-1-MidNodes
 27, 28, 31, 32, 33, 34, 35, 39, 40, 41, 42, 43, 44, 45, 48
*Elset, elset=__PickedSurf62_S3, internal, generate
8776, 8895, 1, 
*Surface, type=ELEMENT, name=_PickedSurf62, internal
__PickedSurf62_S3, S3
*Elset, elset=_CohesiveSeam-1-TopSurf_S3, internal, generate
8776, 8895, 1, 
*Surface, type=ELEMENT, name=CohesiveSeam-1-TopSurf
_CohesiveSeam-1-TopSurf_S3, S3
*Elset, elset=_CohesiveSeam-1-BottomSurf_S1, internal, generate
8776, 8895, 1, 
*Surface, type=ELEMENT, name=CohesiveSeam-1-BottomSurf
_CohesiveSeam-1-BottomSurf_S1, S1
***************************************************************
*Uel property, elset=Uel_Set-MatrixCenter
87000, 0.3, 87000, 87000, 0, 1, 0.00785, 1, 
0, 0.012, 0.0091, 0
*Uel property, elset=Uel_Set-MatrixOut
87000, 0.3, 87000, 87000, 0, 1, 0.00785, 1, 
0, 0.012, 0.0091, 0
*Uel property, elset=Uel_Set-Particle
489000, 0.3, 489000, 489000, 0, 1, 0.00785, 1, 
0, 0.0042, 0.0265, 0
**E, nu, Y, H, eps_cr, thick, rho, anisoswt 
**plswt, lc, gc, drswt 
***************************************************************
*Elset, elset=Uel_Set-MatrixCenter_PH
5020, 5021, 5022, 5023, 5024, 5025, 5026, 5027, 5028, 5029, 5030, 5031, 5032, 5033, 5034, 5035, 
5036, 5037, 5038, 5039, 5040, 5041, 5042, 5043, 5044, 5045, 5046, 5047, 5048, 5049, 5050, 5051, 
5052, 5053, 5054, 5055, 5056, 5057, 5058, 5059, 5060, 5061, 5062, 5063, 5064, 5065, 5066, 5067, 
5068, 5069, 5070, 5071, 5072, 5073, 5074, 5075, 5076, 5077, 5078, 5079, 5080, 5081, 5082, 5083, 
5084, 5085, 5086, 5087, 5088, 5089, 5090, 5091, 5092, 5093, 5094, 5095, 5850, 
*Elset, elset=Uel_Set-MatrixOut_PH
2949, 2950, 2951, 2952, 2953, 2954, 2955, 2956, 2957, 2958, 2959, 2960, 2961, 2962, 2963, 2964, 
2965, 2966, 2967, 2968, 2969, 2970, 2971, 2972, 2973, 2974, 2975, 2976, 2977, 2978, 2979, 2980, 
2981, 2982, 2983, 2984, 2985, 2986, 2987, 2988, 3025, 3026, 3027, 3028, 3029, 3030, 3031, 3032, 
3033, 3034, 3035, 3036, 3037, 3038, 3039, 3040, 3041, 3042, 3043, 3044, 3045, 3046, 3047, 3048, 
3049, 3050, 3051, 3052, 3053, 3054, 3055, 3056, 3057, 3058, 3059, 3060, 3061, 3062, 3063, 3064, 
3153, 3154, 3155, 3156, 3157, 3158, 3159, 3160, 3161, 3162, 3163, 3164, 3165, 3166, 3167, 3168, 
3169, 3170, 3171, 3172, 3173, 3174, 3175, 3176, 3177, 3178, 3179, 3180, 3181, 3182, 3183, 3184, 
3185, 3186, 3187, 3188, 3189, 3190, 3191, 3192, 3193, 3194, 3195, 3196, 3197, 3198, 3199, 3200, 
3201, 3202, 3203, 3204, 3205, 3206, 3207, 3208, 3209, 3210, 3211, 3212, 3213, 3214, 3215, 3216, 
3217, 3218, 3219, 3220, 3221, 3222, 3223, 3224, 3225, 3226, 3227, 3228, 3229, 3230, 3231, 3232, 
3233, 3234, 3235, 3236, 3237, 3238, 3239, 3240, 3241, 3242, 3243, 3244, 3245, 3246, 3247, 3248, 
3249, 3250, 3251, 3252, 3253, 3254, 3255, 3256, 3257, 3258, 3259, 3260, 3261, 3262, 3263, 3264, 
3265, 3266, 3267, 3268, 3269, 3270, 3271, 3272, 3273, 3274, 3275, 3276, 3277, 3278, 3279, 3280, 
3281, 3282, 3283, 3284, 3285, 3286, 3287, 3288, 3289, 3290, 3291, 3292, 3293, 3294, 3295, 3296, 
3297, 3298, 3299, 3300, 3301, 3302, 3303, 3304, 3305, 3306, 3307, 3308, 3309, 3310, 3311, 3312, 
3397, 3398, 3399, 3400, 3401, 3402, 3403, 3404, 3405, 3406, 3407, 3408, 3409, 3410, 3411, 3412, 
3413, 3414, 3415, 3416, 3417, 3418, 3419, 3420, 3421, 3422, 3423, 3424, 3425, 3426, 3427, 3428, 
3429, 3430, 3431, 3432, 3433, 3434, 3435, 3436, 3437, 3438, 3439, 3440, 3441, 3442, 3443, 3444, 
3445, 3446, 3447, 3448, 3449, 3450, 3451, 3452, 3453, 3454, 3455, 3456, 3457, 3458, 3459, 3460, 
3461, 3462, 3463, 3464, 3465, 3466, 3467, 3468, 3469, 3470, 3471, 3472, 3473, 3474, 3475, 3476, 
** ... 98 like lines cut
*Elset, elset=Uel_Set-Particle_PH
2926, 2927, 2928, 2929, 2930, 2931, 2932, 2933, 2934, 2935, 2936, 2937, 2938, 2939, 2940, 2941, 
2942, 2943, 2944, 2945, 2946, 2947, 2948, 2989, 2990, 2991, 2992, 2993, 2994, 2995, 2996, 2997, 
2998, 2999, 3000, 3001, 3002, 3003, 3004, 3005, 3006, 3007, 3008, 3009, 3010, 3011, 3012, 3013, 
3014, 3015, 3016, 3017, 3018, 3019, 3020, 3021, 3022, 3023, 3024, 3065, 3066, 3067, 3068, 3069, 
3070, 3071, 3072, 3073, 3074, 3075, 3076, 3077, 3078, 3079, 3080, 3081, 3082, 3083, 3084, 3085, 
3086, 3087, 3088, 3089, 3090, 3091, 3092, 3093, 3094, 3095, 3096, 3097, 3098, 3099, 3100, 3101, 
3102, 3103, 3104, 3105, 3106, 3107, 3108, 3109, 3110, 3111, 3112, 3113, 3114, 3115, 3116, 3117, 
3118, 3119, 3120, 3121, 3122, 3123, 3124, 3125, 3126, 3127, 3128, 3129, 3130, 3131, 3132, 3133, 
3134, 3135, 3136, 3137, 3138, 3139, 3140, 3141, 3142, 3143, 3144, 3145, 3146, 3147, 3148, 3149, 
3150, 3151, 3152, 3313, 3314, 3315, 3316, 3317, 3318, 3319, 3320, 3321, 3322, 3323, 3324, 3325, 
3326, 3327, 3328, 3329, 3330, 3331, 3332, 3333, 3334, 3335, 3336, 3337, 3338, 3339, 3340, 3341, 
3342, 3343, 3344, 3345, 3346, 3347, 3348, 3349, 3350, 3351, 3352, 3353, 3354, 3355, 3356, 3357, 
3358, 3359, 3360, 3361, 3362, 3363, 3364, 3365, 3366, 3367, 3368, 3369, 3370, 3371, 3372, 3373, 
3374, 3375, 3376, 3377, 3378, 3379, 3380, 3381, 3382, 3383, 3384, 3385, 3386, 3387, 3388, 3389, 
3390, 3391, 3392, 3393, 3394, 3395, 3396, 3613, 3614, 3615, 3616, 3617, 3618, 3619, 3620, 3621, 
3622, 3623, 3624, 3625, 3626, 3627, 3628, 3629, 3630, 3631, 3632, 3633, 3634, 3635, 3636, 3637, 
3638, 3639, 3640, 3641, 3642, 3643, 3644, 3645, 3646, 3647, 3648, 3649, 3650, 3651, 3652, 3653, 
3654, 3655, 3656, 3657, 3658, 3659, 3660, 3661, 3662, 3663, 3664, 3665, 3666, 3667, 3668, 3669, 
3670, 3671, 3672, 3673, 3674, 3675, 3676, 3677, 3678, 3679, 3680, 3681, 3682, 3683, 3684, 3685, 
3686, 3687, 3688, 3689, 3690, 3691, 3692, 3693, 3694, 3695, 3696, 3697, 3698, 3699, 3700, 3701, 
** ... 40 like lines cut
***************************************************************
*Uel property, elset=Uel_Set-MatrixCenter_PH
0.012, 0.0091, 1, 1, 0
*Uel property, elset=Uel_Set-MatrixOut_PH
0.012, 0.0091, 1, 1, 0
*Uel property, elset=Uel_Set-Particle_PH
0.0042, 0.0265, 1, 1, 0
**lc, gc, thick, elswt, drswt
***************************************************************
*Elset, elset=umatelem, generate
5851, 8775, 1
***************************************************************
** Section: Section-UelParticle
*Solid Section, elset=umatelem, material=Material-Uel
,
** Section: Section-Coh
*Cohesive Section, elset=CohesiveSeam-1-Elements, controls=EC-1, material=Material-Coh, response=TRACTION SEPARATION
, 
*End Part
**  
**
** ASSEMBLY
**
*Assembly, name=Assembly
**  
*Instance, name=Plate-1, part=Plate
*End Instance
**  
*Nset, nset=Set-BTM, instance=Plate-1
 112, 113, 801, 802, 803, 804, 805, 806, 807, 808, 809
*Elset, elset=Set-BTM, instance=Plate-1
8363, 8377, 8380, 8381, 8383, 8566, 8718, 8728, 8744, 8752
*Nset, nset=Set-LEFT, instance=Plate-1
  11,  12, 133, 134, 135, 136, 137
*Elset, elset=Set-LEFT, instance=Plate-1
5882, 5896, 5902, 5903, 5905, 5913, 6399, 6400, 6419, 6493, 6518, 6532
*Nset, nset=Set-LOW, instance=Plate-1
 108, 113
*Nset, nset=Set-RIGHT, instance=Plate-1
  24,  25, 159, 160, 161, 162, 163
*Elset, elset=Set-RIGHT, instance=Plate-1
5958, 5962, 5969, 5979, 5981, 5982, 6135, 6146, 6149, 6150, 6231, 6237
*Nset, nset=Set-TOP, instance=Plate-1
 108, 109, 753, 754, 755, 756, 757, 758, 759, 760, 761
*Elset, elset=Set-TOP, instance=Plate-1
7299, 7309, 7311, 7525, 7554, 7555, 7735, 7746, 7916, 7918
**
*Elset, elset=umatelem, instance=Plate-1, generate
5851, 8775, 1
**
*End Assembly
***************************************************************
** 
** ELEMENT CONTROLS
** 
*Section Controls, name=EC-1, ELEMENT DELETION=NO, VISCOSITY=0.0001
1., 1., 1.
** 
** MATERIALS
** 
*Material, name=Material-Coh
*Damage Initiation, criterion=MAXS
100.,100.,100.
*Damage Evolution, type=ENERGY, mixed mode behavior=BK, power=2.5
 0.0091, 0.0091, 0.0091
*Damage Stabilization
0.0001
*Elastic, type=TRACTION
87000.,87000.,87000.
*Material, name=Material-Uel
*Density
 0.00785,
*Depvar
     24,
*User Material, constants=2
 1e-11, 0.3
** ----------------------------------------------------------------
** 
** STEP: Step-1
** 
*Step, name=Step-1, nlgeom=NO, extrapolation=NO, inc=20000, convert sdi=YES
*Static, direct=NO STOP
5e-05, 1., 
** 
** BOUNDARY CONDITIONS
** 
** Name: BC-BTM Type: Displacement/Rotation
*Boundary
Set-BTM, 1, 1, -0.0002
** Name: BC-LOW Type: Displacement/Rotation
*Boundary
Set-LOW, 2, 2
** Name: BC-TOP Type: Displacement/Rotation
*Boundary
Set-TOP, 1, 1, 0.0002
** 
** OUTPUT REQUESTS
** 
*Restart, write, frequency=0
** 
** FIELD OUTPUT: F-Output-1
** 
*Output, field, frequency=20
*Node Output
CF, RF, U
*Element Output, directions=YES
LE, PE, PEEQ, PEMAG, S, SDV
*Contact Output
CDISP, CSTRESS
** 
** HISTORY OUTPUT: H-Output-1
** 
*element output, elset=umatelem
SDV
**
*End Step
