*Heading
** Job name: Job-2Model-2V1 Model name: Model-2V1
** Generated by: Abaqus/CAE 2022
*Preprint, echo=NO, model=NO, history=NO, contact=NO
**
** PARTS
**
*Part, name=Plate
*Node
      1,     0.035379, 0.0130000003
      2,  0.033926785, 0.0148755973
      3,  0.033926785, 0.0141244028
      4,     0.035379, 0.00549999997
      5,  0.033926785, 0.00782494247
      6,  0.033926785, 0.00459291227
      7,  0.033926785, 0.0103755975
      8,     0.035379, 0.00850000046
      9,  0.033926785, 0.00962440297
     10,  0.033926785, 0.00374999992
     11, 0.0374267846, 0.00380498543
     12, 0.0374267846, 0.0161950141
     13,  0.033926785, 0.0162499994
     14, 0.0894745737, 0.0130000003
     15, 0.0909267887, 0.0141244028
     16, 0.0909267887, 0.0148755973
     17, 0.0894745737, 0.00850000046
     18, 0.0909267887, 0.00962440297
     19, 0.0909267887, 0.0103755975
     20, 0.0909267887, 0.00459291227
** ... 2745 like lines cut
*********************** TRIANGULAR ****************************
** ------------------- Displacement ---------------------------
*User element, nodes=3, type=U1, properties=12, coordinates=2, VARIABLES=34
1,2
** -------------------- Phase  field --------------------------
*User element, nodes=3, type=U3, properties=5, coordinates=2, VARIABLES=5
3
***************************************************************
***************************************************************
*Element, type=U1
1, 1170,    1, 115
2, 1174,  122, 1170
3, 1169,    2, 121
4, 1174, 1171, 1172
5, 1172, 1171, 120
6, 1172,    2, 1169
7, 1174, 1173, 1171
8, 1170,  122, 1
9, 1169,  121, 3
10, 1169,    3, 122
11, 1171,  117, 118
12, 1170,  115, 116
13, 1173,  116, 117
14, 1171,  118, 119
15, 1171,  119, 120
16, 1172,  120, 2
17, 1174, 1172, 1169
18, 1173, 1170, 116
19, 1173,  117, 1171
20, 1174, 1169, 122
** ... 4906 like lines cut
***************************************************************
*Element, type=U3
4927, 1170,    1, 115
4928, 1174,  122, 1170
4929, 1169,    2, 121
4930, 1174, 1171, 1172
4931, 1172, 1171, 120
4932, 1172,    2, 1169
4933, 1174, 1173, 1171
4934, 1170,  122, 1
4935, 1169,  121, 3
4936, 1169,    3, 122
4937, 1171,  117, 118
4938, 1170,  115, 116
4939, 1173,  116, 117
4940, 1171,  118, 119
4941, 1171,  119, 120
4942, 1172,  120, 2
4943, 1174, 1172, 1169
4944, 1173, 1170, 116
4945, 1173,  117, 1171
4946, 1174, 1169, 122
** ... 4906 like lines cut
***************************************************************
*Element, type=CPE3
9853, 1170,    1, 115
9854, 1174,  122, 1170
9855, 1169,    2, 121
9856, 1174, 1171, 1172
9857, 1172, 1171, 120
9858, 1172,    2, 1169
9859, 1174, 1173, 1171
9860, 1170,  122, 1
9861, 1169,  121, 3
9862, 1169,    3, 122
9863, 1171,  117, 118
9864, 1170,  115, 116
9865, 1173,  116, 117
9866, 1171,  118, 119
9867, 1171,  119, 120
9868, 1172,  120, 2
9869, 1174, 1172, 1169
9870, 1173, 1170, 116
9871, 1173,  117, 1171
9872, 1174, 1169, 122
** ... 4906 like lines cut
***************************************************************
*Element, type=COH2D4
14779, 2613,   27,   27, 196
14780, 2614, 2613,  196, 197
14781, 2615, 2614,  197, 198
14782, 2616, 2615,  198, 199
14783, 2617, 2616,  199, 200
14784, 2618, 2617,  200, 201
14785, 2619, 2618,  201, 202
14786, 2620, 2619,  202, 203
14787, 27, 2620,  203, 27
14788, 2621,   28,   28, 204
14789, 2622, 2621,  204, 205
14790, 2623, 2622,  205, 206
14791, 2624, 2623,  206, 207
14792, 2625, 2624,  207, 208
14793, 2626, 2625,  208, 209
14794, 2627, 2626,  209, 210
14795, 2628, 2627,  210, 211
14796, 2629, 2628,  211, 212
14797, 2630, 2629,  212, 213
14798, 2631, 2630,  213, 214
** ... 148 like lines cut
***************************************************************
********************** ASSIGNING MATERIAL PROP ****************
*Nset, nset=Uel_Set-MatrixCenter
   27,   28,   29,   30,   37,   38,   46,   47,  196,  197,  198,  199,  200,  201,  202,  203
  204,  205,  206,  207,  208,  209,  210,  211,  212,  213,  214,  215,  216,  217,  218,  219
  220,  221,  222,  290,  329,  330,  331,  332,  401,  402,  403,  404,  405,  406,  407,  408
  409,  410,  411, 1066, 1067, 1068, 1069, 1070, 1071, 1072, 1073, 1074, 1075, 1076, 1077, 1078
 1079, 1080, 1081, 1082, 1083, 2194, 2195, 2196, 2197, 2198, 2199, 2200, 2201, 2202, 2203, 2204
 2205, 2206, 2207, 2208, 2209, 2210, 2211, 2212, 2213, 2214, 2215, 2216, 2217, 2218, 2219, 2220
 2221, 2222, 2223, 2224, 2225, 2226, 2227, 2228, 2229, 2230, 2231, 2232, 2233, 2234, 2235, 2236
 2237, 2238, 2239, 2240, 2241, 2242, 2243, 2244, 2245, 2246, 2247, 2248, 2249, 2250, 2251, 2252
 2253, 2254, 2255, 2256, 2257, 2258, 2259, 2260
*Elset, elset=Uel_Set-MatrixCenter, generate
 3556,  3760,     1
*Nset, nset=Uel_Set-MatrixOut
    1,    2,    3,    4,    5,    6,    7,    8,    9,   10,   11,   12,   13,   14,   15,   16
   17,   18,   19,   20,   21,   22,   23,   24,   25,   26,   29,   30,   31,   32,   33,   34
   35,   36,   37,   38,   39,   40,   41,   42,   43,   44,   45,   46,   47,   48,   49,   50
   51,   52,   53,   54,   55,   56,   57,   58,   59,   60,   61,   62,   63,   64,   65,   66
   67,   68,   69,   70,   71,   72,   73,   74,   75,   76,   77,   78,   79,   80,   81,   82
   83,   84,   85,   86,   87,   88,   89,   90,   91,   92,   93,   94,   95,   96,   97,   98
   99,  100,  101,  102,  103,  104,  105,  106,  107,  108,  109,  110,  111,  112,  113,  114
  115,  116,  117,  118,  119,  120,  122,  123,  124,  127,  128,  129,  130,  131,  132,  133
  134,  135,  136,  137,  138,  139,  140,  141,  142,  143,  144,  145,  146,  147,  148,  149
  150,  151,  152,  153,  154,  155,  156,  158,  159,  160,  161,  162,  163,  164,  166,  167
  168,  169,  170,  171,  172,  173,  174,  175,  176,  177,  178,  179,  180,  181,  182,  183
  184,  185,  186,  187,  188,  189,  190,  191,  192,  193,  194,  195,  227,  228,  229,  230
  231,  232,  233,  234,  235,  236,  237,  238,  239,  240,  241,  242,  243,  244,  245,  246
  247,  248,  249,  250,  251,  252,  253,  254,  255,  256,  257,  258,  259,  260,  261,  262
  263,  264,  265,  266,  267,  268,  269,  270,  271,  272,  273,  274,  275,  276,  277,  278
  279,  280,  281,  282,  283,  284,  285,  286,  287,  288,  289,  290,  291,  292,  293,  294
  295,  296,  297,  298,  299,  300,  301,  302,  303,  304,  305,  306,  307,  308,  309,  310
  311,  312,  313,  314,  315,  316,  317,  318,  319,  320,  321,  322,  323,  324,  325,  326
  327,  328,  329,  330,  331,  332,  333,  334,  335,  336,  337,  338,  339,  340,  341,  342
  343,  344,  345,  346,  347,  348,  349,  350,  351,  352,  353,  354,  355,  356,  357,  358
** ... 111 like lines cut
*Elset, elset=Uel_Set-MatrixOut
   30,   31,   32,   33,   34,   35,   36,   37,   38,   39,   40,   41,   42,   43,   44,   45
   46,   47,   48,   49,   50,   51,   52,   53,   54,   55,   56,   57,   58,   59,   60,   61
   62,   63,   64,   65,   66,   67,   68,   69,   70,   71,   72,   73,   74,   75,   76,   77
   78,   79,   80,   81,   82,   83,   84,   85,   86,   87,   88,   89,   90,   91,   92,   93
   94,   95,   96,  143,  144,  145,  146,  147,  148,  149,  150,  151,  152,  153,  154,  155
  156,  157,  158,  159,  160,  161,  162,  163,  164,  165,  166,  167,  168,  169,  170,  171
  172,  173,  174,  175,  176,  177,  178,  179,  180,  181,  182,  183,  184,  185,  186,  187
  188,  189,  190,  191,  192,  193,  194,  195,  196,  197,  198,  199,  200,  201,  202,  203
  204,  205,  206,  207,  208,  209,  405,  406,  407,  408,  409,  410,  411,  412,  413,  414
  415,  416,  417,  418,  419,  420,  421,  422,  423,  424,  425,  426,  427,  428,  429,  430
  431,  432,  433,  434,  435,  436,  437,  438,  439,  440,  441,  442,  443,  444,  445,  446
  447,  448,  449,  450,  451,  452,  453,  454,  455,  456,  457,  458,  459,  460,  461,  462
  463,  464,  465,  466,  467,  468,  469,  470,  471,  472,  473,  474,  475,  476,  477,  478
  479,  480,  481,  482,  483,  484,  485,  486,  487,  488,  489,  490,  491,  492,  493,  494
  495,  496,  497,  498,  499,  500,  501,  502,  503,  504,  505,  506,  507,  508,  509,  510
  511,  512,  513,  514,  515,  516,  517,  518,  519,  520,  521,  522,  523,  524,  525,  526
  527,  528,  529,  530,  531,  532,  533,  534,  535,  536,  537,  538,  539,  540,  541,  542
  543,  544,  545,  546,  547,  548,  549,  550,  551,  552,  553,  554,  555,  556,  557,  558
  559,  560,  561,  562,  563,  564,  565,  566,  567,  568,  569,  570,  571,  572,  573,  574
  575,  576,  577,  578,  579,  580,  581,  582,  583,  584,  585,  586,  587,  588,  589,  590
** ... 184 like lines cut
*Nset, nset=Uel_Set-Particle
    1,    2,    3,    4,    5,    6,    7,    8,    9,   14,   15,   16,   17,   18,   19,   20
   21,   22,   27,   28,   29,   30,   31,   32,   33,   34,   35,   36,   39,   40,   41,   42
   43,   44,   45,   48,   49,   50,   51,   52,   53,   54,   55,   56,   57,   58,   59,   60
   61,   62,   63,   64,   65,   66,   67,   68,   69,   70,   71,   72,   73,   74,   75,   76
   77,   78,   79,   80,   81,   82,   83,   84,   85,   86,   87,   88,   89,   90,   91,   92
   93,   94,   95,   96,   97,   98,   99,  100,  101,  102,  103,  104,  105,  106,  115,  116
  117,  118,  119,  120,  121,  122,  123,  124,  125,  126,  127,  128,  129,  130,  131,  132
  133,  134,  156,  157,  158,  159,  160,  161,  162,  163,  164,  165,  166,  167,  168,  169
  170,  171,  172,  173,  174,  216,  217,  218,  219,  220,  221,  222,  223,  224,  225,  226
  284,  285,  286,  287,  288,  289,  458,  459,  460,  461,  462,  463,  464,  465,  466,  467
  468,  469,  470,  471,  472,  473,  474,  475,  476,  477,  478,  479,  480,  481,  482,  483
  484,  485,  486,  487,  488,  489,  490,  491,  492,  493,  494,  495,  496,  497,  498,  499
  500,  501,  502,  503,  504,  505,  506,  507,  508,  509,  510,  511,  512,  513,  514,  515
  516,  517,  518,  519,  520,  521,  522,  523,  524,  525,  526,  527,  528,  529,  530,  531
  532,  533,  534,  535,  536,  537,  538,  539,  540,  541,  542,  543,  544,  545,  546,  547
  548,  549,  550,  551,  552,  553,  554,  555,  556,  557,  558,  559,  560,  561,  562,  563
  564,  565,  566,  567,  568,  569,  570,  571,  572,  573,  574,  575,  576,  577,  578,  579
  580,  581,  582,  583,  584,  585,  586,  587,  588,  589,  590,  591,  592,  593,  594,  595
  596,  597,  598,  599,  600,  601,  602,  603,  604,  605,  606,  607,  608,  609,  610,  611
  612,  613,  614,  615,  616,  617,  618,  619,  620,  621,  622,  623,  624,  625,  626,  627
** ... 56 like lines cut
*Elset, elset=Uel_Set-Particle
    1,    2,    3,    4,    5,    6,    7,    8,    9,   10,   11,   12,   13,   14,   15,   16
   17,   18,   19,   20,   21,   22,   23,   24,   25,   26,   27,   28,   29,   97,   98,   99
  100,  101,  102,  103,  104,  105,  106,  107,  108,  109,  110,  111,  112,  113,  114,  115
  116,  117,  118,  119,  120,  121,  122,  123,  124,  125,  126,  127,  128,  129,  130,  131
  132,  133,  134,  135,  136,  137,  138,  139,  140,  141,  142,  210,  211,  212,  213,  214
  215,  216,  217,  218,  219,  220,  221,  222,  223,  224,  225,  226,  227,  228,  229,  230
  231,  232,  233,  234,  235,  236,  237,  238,  239,  240,  241,  242,  243,  244,  245,  246
  247,  248,  249,  250,  251,  252,  253,  254,  255,  256,  257,  258,  259,  260,  261,  262
  263,  264,  265,  266,  267,  268,  269,  270,  271,  272,  273,  274,  275,  276,  277,  278
  279,  280,  281,  282,  283,  284,  285,  286,  287,  288,  289,  290,  291,  292,  293,  294
  295,  296,  297,  298,  299,  300,  301,  302,  303,  304,  305,  306,  307,  308,  309,  310
  311,  312,  313,  314,  315,  316,  317,  318,  319,  320,  321,  322,  323,  324,  325,  326
  327,  328,  329,  330,  331,  332,  333,  334,  335,  336,  337,  338,  339,  340,  341,  342
  343,  344,  345,  346,  347,  348,  349,  350,  351,  352,  353,  354,  355,  356,  357,  358
  359,  360,  361,  362,  363,  364,  365,  366,  367,  368,  369,  370,  371,  372,  373,  374
  375,  376,  377,  378,  379,  380,  381,  382,  383,  384,  385,  386,  387,  388,  389,  390
  391,  392,  393,  394,  395,  396,  397,  398,  399,  400,  401,  402,  403,  404,  822,  823
  824,  825,  826,  827,  828,  829,  830,  831,  832,  833,  834,  835,  836,  837,  838,  839
  840,  841,  842,  843,  844,  845,  846,  847,  848,  849,  850,  851,  852,  853,  854,  855
  856,  857,  858,  859,  860,  861,  862,  863,  864,  865,  866,  867,  868,  869,  870,  871
** ... 72 like lines cut
*Elset, elset=CohesiveSeam-1-Elements, generate
14779, 14946, 1, 
*Nset, nset=CohesiveSeam-1-TopNodes
   27,   28,   31,   32,   33,   34,   35,   39,   40,   41,   42,   43,   44,   45,   48,  196
  197,  198,  199,  200,  201,  202,  203,  204,  205,  206,  207,  208,  209,  210,  211,  212
  213,  214,  215,  227,  228,  229,  230,  231,  232,  233,  234,  235,  236,  237,  238,  239
  240,  241,  242,  243,  244,  245,  246,  247,  248,  249,  250,  251,  252,  253,  254,  255
  256,  257,  258,  259,  260,  261,  262,  263,  264,  265,  266,  267,  268,  269,  270,  271
  272,  273,  274,  275,  276,  277,  278,  279,  280,  281,  282,  283,  333,  334,  335,  336
  337,  338,  339,  340,  341,  342,  343,  344,  345,  346,  347,  348,  349,  350,  351,  352
  353,  354,  355,  356,  357,  358,  359,  360,  361,  362,  363,  364,  365,  366,  367,  368
  369,  370,  371,  372,  373,  374,  375,  376,  377,  378,  379,  380,  381,  382,  383,  384
  385,  386,  387,  388,  389,  390,  391,  392,  393,  394,  395,  396,  397,  398,  399,  400
 2758, 2759, 2760, 2761, 2762, 2763, 2764, 2765
*Nset, nset=CohesiveSeam-1-BottomNodes
   27,   28,   31,   32,   33,   34,   35,   39,   40,   41,   42,   43,   44,   45,   48,  450
  451,  452,  453,  454,  455,  456,  457, 2613, 2614, 2615, 2616, 2617, 2618, 2619, 2620, 2621
 2622, 2623, 2624, 2625, 2626, 2627, 2628, 2629, 2630, 2631, 2632, 2633, 2634, 2635, 2636, 2637
 2638, 2639, 2640, 2641, 2642, 2643, 2644, 2645, 2646, 2647, 2648, 2649, 2650, 2651, 2652, 2653
 2654, 2655, 2656, 2657, 2658, 2659, 2660, 2661, 2662, 2663, 2664, 2665, 2666, 2667, 2668, 2669
 2670, 2671, 2672, 2673, 2674, 2675, 2676, 2677, 2678, 2679, 2680, 2681, 2682, 2683, 2684, 2685
 2686, 2687, 2688, 2689, 2690, 2691, 2692, 2693, 2694, 2695, 2696, 2697, 2698, 2699, 2700, 2701
 2702, 2703, 2704, 2705, 2706, 2707, 2708, 2709, 2710, 2711, 2712, 2713, 2714, 2715, 2716, 2717
 2718, 2719, 2720, 2721, 2722, 2723, 2724, 2725, 2726, 2727, 2728, 2729, 2730, 2731, 2732, 2733
 2734, 2735, 2736, 2737, 2738, 2739, 2740, 2741, 2742, 2743, 2744, 2745, 2746, 2747, 2748, 2749
 2750, 2751, 2752, 2753, 2754, 2755, 2756, 2757
*Nset, nset=CohesiveSeam-1-MidNodes
 27, 28, 31, 32, 33, 34, 35, 39, 40, 41, 42, 43, 44, 45, 48
*Elset, elset=__PickedSurf63_S3, internal, generate
14779, 14946, 1, 
*Surface, type=ELEMENT, name=_PickedSurf63, internal
__PickedSurf63_S3, S3
*Elset, elset=_CohesiveSeam-1-TopSurf_S3, internal, generate
14779, 14946, 1, 
*Surface, type=ELEMENT, name=CohesiveSeam-1-TopSurf
_CohesiveSeam-1-TopSurf_S3, S3
*Elset, elset=_CohesiveSeam-1-BottomSurf_S1, internal, generate
14779, 14946, 1, 
*Surface, type=ELEMENT, name=CohesiveSeam-1-BottomSurf
_CohesiveSeam-1-BottomSurf_S1, S1
***************************************************************
*Uel property, elset=Uel_Set-MatrixCenter
87000, 0.3, 87000, 87000, 0, 1, 0.00785, 1, 
0, 0.012, 0.0091, 0
*Uel property, elset=Uel_Set-MatrixOut
87000, 0.3, 87000, 87000, 0, 1, 0.00785, 1, 
0, 0.012, 0.0091, 0
*Uel property, elset=Uel_Set-Particle
489000, 0.3, 489000, 489000, 0, 1, 0.00785, 1, 
0, 0.0042, 0.0265, 0
**E, nu, Y, H, eps_cr, thick, rho, anisoswt 
**plswt, lc, gc, drswt 
***************************************************************
*Elset, elset=Uel_Set-MatrixCenter_PH, generate
8482, 8686, 1
*Elset, elset=Uel_Set-MatrixOut_PH
4956, 4957, 4958, 4959, 4960, 4961, 4962, 4963, 4964, 4965, 4966, 4967, 4968, 4969, 4970, 4971, 
4972, 4973, 4974, 4975, 4976, 4977, 4978, 4979, 4980, 4981, 4982, 4983, 4984, 4985, 4986, 4987, 
4988, 4989, 4990, 4991, 4992, 4993, 4994, 4995, 4996, 4997, 4998, 4999, 5000, 5001, 5002, 5003, 
5004, 5005, 5006, 5007, 5008, 5009, 5010, 5011, 5012, 5013, 5014, 5015, 5016, 5017, 5018, 5019, 
5020, 5021, 5022, 5069, 5070, 5071, 5072, 5073, 5074, 5075, 5076, 5077, 5078, 5079, 5080, 5081, 
5082, 5083, 5084, 5085, 5086, 5087, 5088, 5089, 5090, 5091, 5092, 5093, 5094, 5095, 5096, 5097, 
5098, 5099, 5100, 5101, 5102, 5103, 5104, 5105, 5106, 5107, 5108, 5109, 5110, 5111, 5112, 5113, 
5114, 5115, 5116, 5117, 5118, 5119, 5120, 5121, 5122, 5123, 5124, 5125, 5126, 5127, 5128, 5129, 
5130, 5131, 5132, 5133, 5134, 5135, 5331, 5332, 5333, 5334, 5335, 5336, 5337, 5338, 5339, 5340, 
5341, 5342, 5343, 5344, 5345, 5346, 5347, 5348, 5349, 5350, 5351, 5352, 5353, 5354, 5355, 5356, 
5357, 5358, 5359, 5360, 5361, 5362, 5363, 5364, 5365, 5366, 5367, 5368, 5369, 5370, 5371, 5372, 
5373, 5374, 5375, 5376, 5377, 5378, 5379, 5380, 5381, 5382, 5383, 5384, 5385, 5386, 5387, 5388, 
5389, 5390, 5391, 5392, 5393, 5394, 5395, 5396, 5397, 5398, 5399, 5400, 5401, 5402, 5403, 5404, 
5405, 5406, 5407, 5408, 5409, 5410, 5411, 5412, 5413, 5414, 5415, 5416, 5417, 5418, 5419, 5420, 
5421, 5422, 5423, 5424, 5425, 5426, 5427, 5428, 5429, 5430, 5431, 5432, 5433, 5434, 5435, 5436, 
5437, 5438, 5439, 5440, 5441, 5442, 5443, 5444, 5445, 5446, 5447, 5448, 5449, 5450, 5451, 5452, 
5453, 5454, 5455, 5456, 5457, 5458, 5459, 5460, 5461, 5462, 5463, 5464, 5465, 5466, 5467, 5468, 
5469, 5470, 5471, 5472, 5473, 5474, 5475, 5476, 5477, 5478, 5479, 5480, 5481, 5482, 5483, 5484, 
5485, 5486, 5487, 5488, 5489, 5490, 5491, 5492, 5493, 5494, 5495, 5496, 5497, 5498, 5499, 5500, 
5501, 5502, 5503, 5504, 5505, 5506, 5507, 5508, 5509, 5510, 5511, 5512, 5513, 5514, 5515, 5516, 
** ... 184 like lines cut
*Elset, elset=Uel_Set-Particle_PH
4927, 4928, 4929, 4930, 4931, 4932, 4933, 4934, 4935, 4936, 4937, 4938, 4939, 4940, 4941, 4942, 
4943, 4944, 4945, 4946, 4947, 4948, 4949, 4950, 4951, 4952, 4953, 4954, 4955, 5023, 5024, 5025, 
5026, 5027, 5028, 5029, 5030, 5031, 5032, 5033, 5034, 5035, 5036, 5037, 5038, 5039, 5040, 5041, 
5042, 5043, 5044, 5045, 5046, 5047, 5048, 5049, 5050, 5051, 5052, 5053, 5054, 5055, 5056, 5057, 
5058, 5059, 5060, 5061, 5062, 5063, 5064, 5065, 5066, 5067, 5068, 5136, 5137, 5138, 5139, 5140, 
5141, 5142, 5143, 5144, 5145, 5146, 5147, 5148, 5149, 5150, 5151, 5152, 5153, 5154, 5155, 5156, 
5157, 5158, 5159, 5160, 5161, 5162, 5163, 5164, 5165, 5166, 5167, 5168, 5169, 5170, 5171, 5172, 
5173, 5174, 5175, 5176, 5177, 5178, 5179, 5180, 5181, 5182, 5183, 5184, 5185, 5186, 5187, 5188, 
5189, 5190, 5191, 5192, 5193, 5194, 5195, 5196, 5197, 5198, 5199, 5200, 5201, 5202, 5203, 5204, 
5205, 5206, 5207, 5208, 5209, 5210, 5211, 5212, 5213, 5214, 5215, 5216, 5217, 5218, 5219, 5220, 
5221, 5222, 5223, 5224, 5225, 5226, 5227, 5228, 5229, 5230, 5231, 5232, 5233, 5234, 5235, 5236, 
5237, 5238, 5239, 5240, 5241, 5242, 5243, 5244, 5245, 5246, 5247, 5248, 5249, 5250, 5251, 5252, 
5253, 5254, 5255, 5256, 5257, 5258, 5259, 5260, 5261, 5262, 5263, 5264, 5265, 5266, 5267, 5268, 
5269, 5270, 5271, 5272, 5273, 5274, 5275, 5276, 5277, 5278, 5279, 5280, 5281, 5282, 5283, 5284, 
5285, 5286, 5287, 5288, 5289, 5290, 5291, 5292, 5293, 5294, 5295, 5296, 5297, 5298, 5299, 5300, 
5301, 5302, 5303, 5304, 5305, 5306, 5307, 5308, 5309, 5310, 5311, 5312, 5313, 5314, 5315, 5316, 
5317, 5318, 5319, 5320, 5321, 5322, 5323, 5324, 5325, 5326, 5327, 5328, 5329, 5330, 5748, 5749, 
5750, 5751, 5752, 5753, 5754, 5755, 5756, 5757, 5758, 5759, 5760, 5761, 5762, 5763, 5764, 5765, 
5766, 5767, 5768, 5769, 5770, 5771, 5772, 5773, 5774, 5775, 5776, 5777, 5778, 5779, 5780, 5781, 
5782, 5783, 5784, 5785, 5786, 5787, 5788, 5789, 5790, 5791, 5792, 5793, 5794, 5795, 5796, 5797, 
** ... 72 like lines cut
***************************************************************
*Uel property, elset=Uel_Set-MatrixCenter_PH
0.012, 0.0091, 1, 1, 0
*Uel property, elset=Uel_Set-MatrixOut_PH
0.012, 0.0091, 1, 1, 0
*Uel property, elset=Uel_Set-Particle_PH
0.0042, 0.0265, 1, 1, 0
**lc, gc, thick, elswt, drswt
***************************************************************
*Elset, elset=umatelem, generate
9853, 14778, 1
***************************************************************
** Section: Section-UelParticle
*Solid Section, elset=umatelem, material=Material-Uel
,
** Section: Section-Coh
*Cohesive Section, elset=CohesiveSeam-1-Elements, controls=EC-1, material=Material-Coh, response=TRACTION SEPARATION
, 
*End Part
**  
**
** ASSEMBLY
**
*Assembly, name=Assembly
**  
*Instance, name=Plate-1, part=Plate
*End Instance
**  
*Nset, nset=Set-BTM, instance=Plate-1
  112,  113, 1117, 1118, 1119, 1120, 1121, 1122, 1123, 1124, 1125, 1126, 1127, 1128, 1129, 1130
 1131, 1132, 1133, 1134, 1135
*Elset, elset=Set-BTM, instance=Plate-1
13919, 13920, 13921, 13922, 13928, 14009, 14033, 14037, 14038, 14042, 14044, 14045, 14049, 14298, 14367, 14369
14378, 14386, 14396, 14398
*Nset, nset=Set-LEFT, instance=Plate-1
  11,  12, 139, 140, 141, 142, 143, 144, 145, 146, 147, 148, 149
*Elset, elset=Set-LEFT, instance=Plate-1
9889, 9890, 9900, 9909, 9910, 9915, 9918, 9922, 9924, 9940, 9945, 9947, 10947, 10948, 10954, 11098
11121, 11124, 11126, 11128, 11130, 11133, 11135, 11138
*Nset, nset=Set-LOW, instance=Plate-1
 108, 113
*Nset, nset=Set-RIGHT, instance=Plate-1
  24,  25, 182, 183, 184, 185, 186, 187, 188, 189, 190, 191, 192
*Elset, elset=Set-RIGHT, instance=Plate-1
10001, 10002, 10004, 10011, 10013, 10018, 10032, 10034, 10036, 10039, 10041, 10054, 10325, 10326, 10350, 10351
10356, 10361, 10462, 10473, 10530, 10531, 10533, 10534
*Nset, nset=Set-TOP, instance=Plate-1
  108,  109, 1014, 1015, 1016, 1017, 1018, 1019, 1020, 1021, 1022, 1023, 1024, 1025, 1026, 1027
 1028, 1029, 1030, 1031, 1032
*Elset, elset=Set-TOP, instance=Plate-1
12314, 12317, 12328, 12329, 12332, 12624, 12627, 12633, 12635, 12638, 12641, 12706, 13066, 13073, 13102, 13104
13121, 13126, 13129, 13305
**
*Elset, elset=umatelem, instance=Plate-1, generate
9853, 14778, 1
**
*End Assembly
***************************************************************
** 
** ELEMENT CONTROLS
** 
*Section Controls, name=EC-1, ELEMENT DELETION=NO, VISCOSITY=0.0001
1., 1., 1.
** 
** MATERIALS
** 
*Material, name=Material-Coh
*Damage Initiation, criterion=MAXS
100.,100.,100.
*Damage Evolution, type=ENERGY, mixed mode behavior=BK, power=2.5
 0.0091, 0.0091, 0.0091
*Damage Stabilization
0.0001
*Elastic, type=TRACTION
87000.,87000.,87000.
*Material, name=Material-Uel
*Density
 0.00785,
*Depvar
     24,
*User Material, constants=2
 1e-11, 0.3
** ----------------------------------------------------------------
** 
** STEP: Step-1
** 
*Step, name=Step-1, nlgeom=NO, extrapolation=NO, inc=20000, convert sdi=YES
*Static, direct=NO STOP
5e-05, 1., 
** 
** BOUNDARY CONDITIONS
** 
** Name: BC-BTM Type: Displacement/Rotation
*Boundary
Set-BTM, 1, 1, -0.0002
** Name: BC-LOW Type: Displacement/Rotation
*Boundary
Set-LOW, 2, 2
** Name: BC-TOP Type: Displacement/Rotation
*Boundary
Set-TOP, 1, 1, 0.0002
** 
** OUTPUT REQUESTS
** 
*Restart, write, frequency=0
** 
** FIELD OUTPUT: F-Output-1
** 
*Output, field, frequency=20
*Node Output
CF, RF, U
*Element Output, directions=YES
LE, PE, PEEQ, PEMAG, S, SDV
*Contact Output
CDISP, CSTRESS
** 
** HISTORY OUTPUT: H-Output-1
** 
*element output, elset=umatelem
SDV
**
*End Step
