*Heading
** Job name: Job-2Model-2V1 Model name: Model-2V1
** Generated by: Abaqus/CAE 2022
*Preprint, echo=NO, model=NO, history=NO, contact=NO
**
** PARTS
**
*Part, name=Plate
*Node
      1,     0.035379, 0.0130000003
      2,  0.033926785, 0.0148755973
      3,  0.033926785, 0.0141244028
      4,     0.035379, 0.00549999997
      5,  0.033926785, 0.00782494247
      6,  0.033926785, 0.00459291227
      7,  0.033926785, 0.0103755975
      8,     0.035379, 0.00850000046
      9,  0.033926785, 0.00962440297
     10,  0.033926785, 0.00374999992
     11, 0.0374267846, 0.00380498543
     12, 0.0374267846, 0.0161950141
     13,  0.033926785, 0.0162499994
     14, 0.0894745737, 0.0130000003
     15, 0.0909267887, 0.0141244028
     16, 0.0909267887, 0.0148755973
     17, 0.0894745737, 0.00850000046
     18, 0.0909267887, 0.00962440297
     19, 0.0909267887, 0.0103755975
     20, 0.0909267887, 0.00459291227
** ... 2745 like lines cut
*Element, type=CPE3
 1, 1170,    1,  115
 2, 1174,  122, 1170
 3, 1169,    2,  121
 4, 1174, 1171, 1172
 5, 1172, 1171,  120
 6, 1172,    2, 1169
 7, 1174, 1173, 1171
 8, 1170,  122,    1
 9, 1169,  121,    3
10, 1169,    3,  122
11, 1171,  117,  118
12, 1170,  115,  116
13, 1173,  116,  117
14, 1171,  118,  119
15, 1171,  119,  120
16, 1172,  120,    2
17, 1174, 1172, 1169
18, 1173, 1170,  116
19, 1173,  117, 1171
20, 1174, 1169,  122
** ... 4906 like lines cut
*Element, type=COH2D4
4927, 2613,   27,   27,  196
4928, 2614, 2613,  196,  197
4929, 2615, 2614,  197,  198
4930, 2616, 2615,  198,  199
4931, 2617, 2616,  199,  200
4932, 2618, 2617,  200,  201
4933, 2619, 2618,  201,  202
4934, 2620, 2619,  202,  203
4935,   27, 2620,  203,   27
4936, 2621,   28,   28,  204
4937, 2622, 2621,  204,  205
4938, 2623, 2622,  205,  206
4939, 2624, 2623,  206,  207
4940, 2625, 2624,  207,  208
4941, 2626, 2625,  208,  209
4942, 2627, 2626,  209,  210
4943, 2628, 2627,  210,  211
4944, 2629, 2628,  211,  212
4945, 2630, 2629,  212,  213
4946, 2631, 2630,  213,  214
** ... 148 like lines cut
*Nset, nset=Uel_Set-MatrixCenter
   27,   28,   29,   30,   37,   38,   46,   47,  196,  197,  198,  199,  200,  201,  202,  203
  204,  205,  206,  207,  208,  209,  210,  211,  212,  213,  214,  215,  216,  217,  218,  219
  220,  221,  222,  290,  329,  330,  331,  332,  401,  402,  403,  404,  405,  406,  407,  408
  409,  410,  411, 1066, 1067, 1068, 1069, 1070, 1071, 1072, 1073, 1074, 1075, 1076, 1077, 1078
 1079, 1080, 1081, 1082, 1083, 2194, 2195, 2196, 2197, 2198, 2199, 2200, 2201, 2202, 2203, 2204
 2205, 2206, 2207, 2208, 2209, 2210, 2211, 2212, 2213, 2214, 2215, 2216, 2217, 2218, 2219, 2220
 2221, 2222, 2223, 2224, 2225, 2226, 2227, 2228, 2229, 2230, 2231, 2232, 2233, 2234, 2235, 2236
 2237, 2238, 2239, 2240, 2241, 2242, 2243, 2244, 2245, 2246, 2247, 2248, 2249, 2250, 2251, 2252
 2253, 2254, 2255, 2256, 2257, 2258, 2259, 2260
*Elset, elset=Uel_Set-MatrixCenter, generate
 3556,  3760,     1
*Nset, nset=Uel_Set-MatrixOut
    1,    2,    3,    4,    5,    6,    7,    8,    9,   10,   11,   12,   13,   14,   15,   16
   17,   18,   19,   20,   21,   22,   23,   24,   25,   26,   29,   30,   31,   32,   33,   34
   35,   36,   37,   38,   39,   40,   41,   42,   43,   44,   45,   46,   47,   48,   49,   50
   51,   52,   53,   54,   55,   56,   57,   58,   59,   60,   61,   62,   63,   64,   65,   66
   67,   68,   69,   70,   71,   72,   73,   74,   75,   76,   77,   78,   79,   80,   81,   82
   83,   84,   85,   86,   87,   88,   89,   90,   91,   92,   93,   94,   95,   96,   97,   98
   99,  100,  101,  102,  103,  104,  105,  106,  107,  108,  109,  110,  111,  112,  113,  114
  115,  116,  117,  118,  119,  120,  122,  123,  124,  127,  128,  129,  130,  131,  132,  133
  134,  135,  136,  137,  138,  139,  140,  141,  142,  143,  144,  145,  146,  147,  148,  149
  150,  151,  152,  153,  154,  155,  156,  158,  159,  160,  161,  162,  163,  164,  166,  167
  168,  169,  170,  171,  172,  173,  174,  175,  176,  177,  178,  179,  180,  181,  182,  183
  184,  185,  186,  187,  188,  189,  190,  191,  192,  193,  194,  195,  227,  228,  229,  230
  231,  232,  233,  234,  235,  236,  237,  238,  239,  240,  241,  242,  243,  244,  245,  246
  247,  248,  249,  250,  251,  252,  253,  254,  255,  256,  257,  258,  259,  260,  261,  262
  263,  264,  265,  266,  267,  268,  269,  270,  271,  272,  273,  274,  275,  276,  277,  278
  279,  280,  281,  282,  283,  284,  285,  286,  287,  288,  289,  290,  291,  292,  293,  294
  295,  296,  297,  298,  299,  300,  301,  302,  303,  304,  305,  306,  307,  308,  309,  310
  311,  312,  313,  314,  315,  316,  317,  318,  319,  320,  321,  322,  323,  324,  325,  326
  327,  328,  329,  330,  331,  332,  333,  334,  335,  336,  337,  338,  339,  340,  341,  342
  343,  344,  345,  346,  347,  348,  349,  350,  351,  352,  353,  354,  355,  356,  357,  358
** ... 111 like lines cut
*Elset, elset=Uel_Set-MatrixOut
   30,   31,   32,   33,   34,   35,   36,   37,   38,   39,   40,   41,   42,   43,   44,   45
   46,   47,   48,   49,   50,   51,   52,   53,   54,   55,   56,   57,   58,   59,   60,   61
   62,   63,   64,   65,   66,   67,   68,   69,   70,   71,   72,   73,   74,   75,   76,   77
   78,   79,   80,   81,   82,   83,   84,   85,   86,   87,   88,   89,   90,   91,   92,   93
   94,   95,   96,  143,  144,  145,  146,  147,  148,  149,  150,  151,  152,  153,  154,  155
  156,  157,  158,  159,  160,  161,  162,  163,  164,  165,  166,  167,  168,  169,  170,  171
  172,  173,  174,  175,  176,  177,  178,  179,  180,  181,  182,  183,  184,  185,  186,  187
  188,  189,  190,  191,  192,  193,  194,  195,  196,  197,  198,  199,  200,  201,  202,  203
  204,  205,  206,  207,  208,  209,  405,  406,  407,  408,  409,  410,  411,  412,  413,  414
  415,  416,  417,  418,  419,  420,  421,  422,  423,  424,  425,  426,  427,  428,  429,  430
  431,  432,  433,  434,  435,  436,  437,  438,  439,  440,  441,  442,  443,  444,  445,  446
  447,  448,  449,  450,  451,  452,  453,  454,  455,  456,  457,  458,  459,  460,  461,  462
  463,  464,  465,  466,  467,  468,  469,  470,  471,  472,  473,  474,  475,  476,  477,  478
  479,  480,  481,  482,  483,  484,  485,  486,  487,  488,  489,  490,  491,  492,  493,  494
  495,  496,  497,  498,  499,  500,  501,  502,  503,  504,  505,  506,  507,  508,  509,  510
  511,  512,  513,  514,  515,  516,  517,  518,  519,  520,  521,  522,  523,  524,  525,  526
  527,  528,  529,  530,  531,  532,  533,  534,  535,  536,  537,  538,  539,  540,  541,  542
  543,  544,  545,  546,  547,  548,  549,  550,  551,  552,  553,  554,  555,  556,  557,  558
  559,  560,  561,  562,  563,  564,  565,  566,  567,  568,  569,  570,  571,  572,  573,  574
  575,  576,  577,  578,  579,  580,  581,  582,  583,  584,  585,  586,  587,  588,  589,  590
** ... 184 like lines cut
*Nset, nset=Uel_Set-Particle
    1,    2,    3,    4,    5,    6,    7,    8,    9,   14,   15,   16,   17,   18,   19,   20
   21,   22,   27,   28,   29,   30,   31,   32,   33,   34,   35,   36,   39,   40,   41,   42
   43,   44,   45,   48,   49,   50,   51,   52,   53,   54,   55,   56,   57,   58,   59,   60
   61,   62,   63,   64,   65,   66,   67,   68,   69,   70,   71,   72,   73,   74,   75,   76
   77,   78,   79,   80,   81,   82,   83,   84,   85,   86,   87,   88,   89,   90,   91,   92
   93,   94,   95,   96,   97,   98,   99,  100,  101,  102,  103,  104,  105,  106,  115,  116
  117,  118,  119,  120,  121,  122,  123,  124,  125,  126,  127,  128,  129,  130,  131,  132
  133,  134,  156,  157,  158,  159,  160,  161,  162,  163,  164,  165,  166,  167,  168,  169
  170,  171,  172,  173,  174,  216,  217,  218,  219,  220,  221,  222,  223,  224,  225,  226
  284,  285,  286,  287,  288,  289,  458,  459,  460,  461,  462,  463,  464,  465,  466,  467
  468,  469,  470,  471,  472,  473,  474,  475,  476,  477,  478,  479,  480,  481,  482,  483
  484,  485,  486,  487,  488,  489,  490,  491,  492,  493,  494,  495,  496,  497,  498,  499
  500,  501,  502,  503,  504,  505,  506,  507,  508,  509,  510,  511,  512,  513,  514,  515
  516,  517,  518,  519,  520,  521,  522,  523,  524,  525,  526,  527,  528,  529,  530,  531
  532,  533,  534,  535,  536,  537,  538,  539,  540,  541,  542,  543,  544,  545,  546,  547
  548,  549,  550,  551,  552,  553,  554,  555,  556,  557,  558,  559,  560,  561,  562,  563
  564,  565,  566,  567,  568,  569,  570,  571,  572,  573,  574,  575,  576,  577,  578,  579
  580,  581,  582,  583,  584,  585,  586,  587,  588,  589,  590,  591,  592,  593,  594,  595
  596,  597,  598,  599,  600,  601,  602,  603,  604,  605,  606,  607,  608,  609,  610,  611
  612,  613,  614,  615,  616,  617,  618,  619,  620,  621,  622,  623,  624,  625,  626,  627
** ... 56 like lines cut
*Elset, elset=Uel_Set-Particle
    1,    2,    3,    4,    5,    6,    7,    8,    9,   10,   11,   12,   13,   14,   15,   16
   17,   18,   19,   20,   21,   22,   23,   24,   25,   26,   27,   28,   29,   97,   98,   99
  100,  101,  102,  103,  104,  105,  106,  107,  108,  109,  110,  111,  112,  113,  114,  115
  116,  117,  118,  119,  120,  121,  122,  123,  124,  125,  126,  127,  128,  129,  130,  131
  132,  133,  134,  135,  136,  137,  138,  139,  140,  141,  142,  210,  211,  212,  213,  214
  215,  216,  217,  218,  219,  220,  221,  222,  223,  224,  225,  226,  227,  228,  229,  230
  231,  232,  233,  234,  235,  236,  237,  238,  239,  240,  241,  242,  243,  244,  245,  246
  247,  248,  249,  250,  251,  252,  253,  254,  255,  256,  257,  258,  259,  260,  261,  262
  263,  264,  265,  266,  267,  268,  269,  270,  271,  272,  273,  274,  275,  276,  277,  278
  279,  280,  281,  282,  283,  284,  285,  286,  287,  288,  289,  290,  291,  292,  293,  294
  295,  296,  297,  298,  299,  300,  301,  302,  303,  304,  305,  306,  307,  308,  309,  310
  311,  312,  313,  314,  315,  316,  317,  318,  319,  320,  321,  322,  323,  324,  325,  326
  327,  328,  329,  330,  331,  332,  333,  334,  335,  336,  337,  338,  339,  340,  341,  342
  343,  344,  345,  346,  347,  348,  349,  350,  351,  352,  353,  354,  355,  356,  357,  358
  359,  360,  361,  362,  363,  364,  365,  366,  367,  368,  369,  370,  371,  372,  373,  374
  375,  376,  377,  378,  379,  380,  381,  382,  383,  384,  385,  386,  387,  388,  389,  390
  391,  392,  393,  394,  395,  396,  397,  398,  399,  400,  401,  402,  403,  404,  822,  823
  824,  825,  826,  827,  828,  829,  830,  831,  832,  833,  834,  835,  836,  837,  838,  839
  840,  841,  842,  843,  844,  845,  846,  847,  848,  849,  850,  851,  852,  853,  854,  855
  856,  857,  858,  859,  860,  861,  862,  863,  864,  865,  866,  867,  868,  869,  870,  871
** ... 72 like lines cut
*Elset, elset=CohesiveSeam-1-Elements, generate
 4927,  5094,     1
*Nset, nset=CohesiveSeam-1-TopNodes
   27,   28,   31,   32,   33,   34,   35,   39,   40,   41,   42,   43,   44,   45,   48,  196
  197,  198,  199,  200,  201,  202,  203,  204,  205,  206,  207,  208,  209,  210,  211,  212
  213,  214,  215,  227,  228,  229,  230,  231,  232,  233,  234,  235,  236,  237,  238,  239
  240,  241,  242,  243,  244,  245,  246,  247,  248,  249,  250,  251,  252,  253,  254,  255
  256,  257,  258,  259,  260,  261,  262,  263,  264,  265,  266,  267,  268,  269,  270,  271
  272,  273,  274,  275,  276,  277,  278,  279,  280,  281,  282,  283,  333,  334,  335,  336
  337,  338,  339,  340,  341,  342,  343,  344,  345,  346,  347,  348,  349,  350,  351,  352
  353,  354,  355,  356,  357,  358,  359,  360,  361,  362,  363,  364,  365,  366,  367,  368
  369,  370,  371,  372,  373,  374,  375,  376,  377,  378,  379,  380,  381,  382,  383,  384
  385,  386,  387,  388,  389,  390,  391,  392,  393,  394,  395,  396,  397,  398,  399,  400
 2758, 2759, 2760, 2761, 2762, 2763, 2764, 2765
*Nset, nset=CohesiveSeam-1-BottomNodes
   27,   28,   31,   32,   33,   34,   35,   39,   40,   41,   42,   43,   44,   45,   48,  450
  451,  452,  453,  454,  455,  456,  457, 2613, 2614, 2615, 2616, 2617, 2618, 2619, 2620, 2621
 2622, 2623, 2624, 2625, 2626, 2627, 2628, 2629, 2630, 2631, 2632, 2633, 2634, 2635, 2636, 2637
 2638, 2639, 2640, 2641, 2642, 2643, 2644, 2645, 2646, 2647, 2648, 2649, 2650, 2651, 2652, 2653
 2654, 2655, 2656, 2657, 2658, 2659, 2660, 2661, 2662, 2663, 2664, 2665, 2666, 2667, 2668, 2669
 2670, 2671, 2672, 2673, 2674, 2675, 2676, 2677, 2678, 2679, 2680, 2681, 2682, 2683, 2684, 2685
 2686, 2687, 2688, 2689, 2690, 2691, 2692, 2693, 2694, 2695, 2696, 2697, 2698, 2699, 2700, 2701
 2702, 2703, 2704, 2705, 2706, 2707, 2708, 2709, 2710, 2711, 2712, 2713, 2714, 2715, 2716, 2717
 2718, 2719, 2720, 2721, 2722, 2723, 2724, 2725, 2726, 2727, 2728, 2729, 2730, 2731, 2732, 2733
 2734, 2735, 2736, 2737, 2738, 2739, 2740, 2741, 2742, 2743, 2744, 2745, 2746, 2747, 2748, 2749
 2750, 2751, 2752, 2753, 2754, 2755, 2756, 2757
*Nset, nset=CohesiveSeam-1-MidNodes
 27, 28, 31, 32, 33, 34, 35, 39, 40, 41, 42, 43, 44, 45, 48
*Elset, elset=__PickedSurf63_S3, internal, generate
 4927,  5094,     1
*Surface, type=ELEMENT, name=_PickedSurf63, internal
__PickedSurf63_S3, S3
*Elset, elset=_CohesiveSeam-1-TopSurf_S3, internal, generate
 4927,  5094,     1
*Surface, type=ELEMENT, name=CohesiveSeam-1-TopSurf
_CohesiveSeam-1-TopSurf_S3, S3
*Elset, elset=_CohesiveSeam-1-BottomSurf_S1, internal, generate
 4927,  5094,     1
*Surface, type=ELEMENT, name=CohesiveSeam-1-BottomSurf
_CohesiveSeam-1-BottomSurf_S1, S1
** Section: Section-UelParticle
*Solid Section, elset=Uel_Set-Particle, material=Material-Uel
,
** Section: Section-UelMatrixOut
*Solid Section, elset=Uel_Set-MatrixOut, material=Material-Uel
,
** Section: Section-UelMatrixCenter
*Solid Section, elset=Uel_Set-MatrixCenter, material=Material-Uel
,
** Section: Section-Coh
*Cohesive Section, elset=CohesiveSeam-1-Elements, controls=EC-1, material=Material-Coh, response=TRACTION SEPARATION
, 
*End Part
**  
**
** ASSEMBLY
**
*Assembly, name=Assembly
**  
*Instance, name=Plate-1, part=Plate
*End Instance
**  
*Nset, nset=Set-BTM, instance=Plate-1
  112,  113, 1117, 1118, 1119, 1120, 1121, 1122, 1123, 1124, 1125, 1126, 1127, 1128, 1129, 1130
 1131, 1132, 1133, 1134, 1135
*Elset, elset=Set-BTM, instance=Plate-1
 4067, 4068, 4069, 4070, 4076, 4157, 4181, 4185, 4186, 4190, 4192, 4193, 4197, 4446, 4515, 4517
 4526, 4534, 4544, 4546
*Nset, nset=Set-LEFT, instance=Plate-1
  11,  12, 139, 140, 141, 142, 143, 144, 145, 146, 147, 148, 149
*Elset, elset=Set-LEFT, instance=Plate-1
   37,   38,   48,   57,   58,   63,   66,   70,   72,   88,   93,   95, 1095, 1096, 1102, 1246
 1269, 1272, 1274, 1276, 1278, 1281, 1283, 1286
*Nset, nset=Set-LOW, instance=Plate-1
 108, 113
*Nset, nset=Set-RIGHT, instance=Plate-1
  24,  25, 182, 183, 184, 185, 186, 187, 188, 189, 190, 191, 192
*Elset, elset=Set-RIGHT, instance=Plate-1
 149, 150, 152, 159, 161, 166, 180, 182, 184, 187, 189, 202, 473, 474, 498, 499
 504, 509, 610, 621, 678, 679, 681, 682
*Nset, nset=Set-TOP, instance=Plate-1
  108,  109, 1014, 1015, 1016, 1017, 1018, 1019, 1020, 1021, 1022, 1023, 1024, 1025, 1026, 1027
 1028, 1029, 1030, 1031, 1032
*Elset, elset=Set-TOP, instance=Plate-1
 2462, 2465, 2476, 2477, 2480, 2772, 2775, 2781, 2783, 2786, 2789, 2854, 3214, 3221, 3250, 3252
 3269, 3274, 3277, 3453
*End Assembly
** 
** ELEMENT CONTROLS
** 
*Section Controls, name=EC-1, ELEMENT DELETION=NO, VISCOSITY=0.0001
1., 1., 1.
** 
** MATERIALS
** 
*Material, name=Material-Coh
*Damage Initiation, criterion=MAXS
100.,100.,100.
*Damage Evolution, type=ENERGY, mixed mode behavior=BK, power=2.5
 0.0091, 0.0091, 0.0091
*Damage Stabilization
0.0001
*Elastic, type=TRACTION
87000.,87000.,87000.
*Material, name=Material-Uel
*Density
 0.00785,
*Depvar
     24,
*User Material, constants=2
 1e-11, 0.3
** ----------------------------------------------------------------
** 
** STEP: Step-1
** 
*Step, name=Step-1, nlgeom=NO, extrapolation=NO, inc=20000, convert sdi=YES
*Static, direct=NO STOP
5e-05, 1., 
** 
** BOUNDARY CONDITIONS
** 
** Name: BC-BTM Type: Displacement/Rotation
*Boundary
Set-BTM, 1, 1, -0.0002
** Name: BC-LOW Type: Displacement/Rotation
*Boundary
Set-LOW, 2, 2
** Name: BC-TOP Type: Displacement/Rotation
*Boundary
Set-TOP, 1, 1, 0.0002
** 
** OUTPUT REQUESTS
** 
*Restart, write, frequency=0
** 
** FIELD OUTPUT: F-Output-1
** 
*Output, field, frequency=20
*Node Output
CF, RF, U
*Element Output, directions=YES
LE, PE, PEEQ, PEMAG, S, SDV
*Contact Output
CDISP, CSTRESS
** 
** HISTORY OUTPUT: H-Output-1
** 
*Output, history, variable=PRESELECT, frequency=20
*End Step
