*Heading
** Job name: Job-1Model-1V1 Model name: Model-1V1
** Generated by: Abaqus/CAE 2022
*Preprint, echo=NO, model=NO, history=NO, contact=NO
**
** PARTS
**
*Part, name=Plate
*Node
      1,     0.035379, 0.0130000003
      2,  0.033926785, 0.0148755973
      3,  0.033926785, 0.0141244028
      4,     0.035379, 0.00549999997
      5,  0.033926785, 0.00782494247
      6,  0.033926785, 0.00459291227
      7,  0.033926785, 0.0103755975
      8,     0.035379, 0.00850000046
      9,  0.033926785, 0.00962440297
     10,  0.033926785, 0.00374999992
     11, 0.0374267846, 0.00380498543
     12, 0.0374267846, 0.0161950141
     13,  0.033926785, 0.0162499994
     14, 0.0894745737, 0.0130000003
     15, 0.0909267887, 0.0141244028
     16, 0.0909267887, 0.0148755973
     17, 0.0894745737, 0.00850000046
     18, 0.0909267887, 0.00962440297
     19, 0.0909267887, 0.0103755975
     20, 0.0909267887, 0.00459291227
** ... 1623 like lines cut
*Element, type=CPE3
 1, 827,   1, 115
 2, 830, 827, 828
 3, 829, 828, 118
 4, 830, 828, 829
 5, 829,   2, 826
 6, 826,   2, 120
 7, 830,   1, 827
 8, 826, 120,   3
 9, 826,   3, 121
10, 828, 827, 116
11, 827, 115, 116
12, 828, 116, 117
13, 828, 117, 118
14, 829, 118, 119
15, 829, 119,   2
16, 830, 829, 826
17, 830, 826, 121
18, 830, 121,   1
19, 124, 125,   4
20, 124,   4, 122
** ... 2905 like lines cut
*Element, type=COH2D4
2926, 1539,   27,   27,  165
2927, 1540, 1539,  165,  166
2928, 1541, 1540,  166,  167
2929, 1542, 1541,  167,  168
2930, 1543, 1542,  168,  169
2931, 1544, 1543,  169,  170
2932, 1545, 1544,  170,  171
2933,   27, 1545,  171,   27
2934, 1546,   28,   28,  172
2935, 1547, 1546,  172,  173
2936, 1548, 1547,  173,  174
2937, 1549, 1548,  174,  175
2938, 1550, 1549,  175,  176
2939, 1551, 1550,  176,  177
2940, 1552, 1551,  177,  178
2941,   28, 1552,  178,   28
2942, 1553,   31,   31,  183
2943, 1554, 1553,  183,  184
2944, 1555, 1554,  184,  185
2945, 1556, 1555,  185,  186
** ... 100 like lines cut
*Nset, nset=Uel_Set-MatrixCenter
   27,   28,   29,   30,   37,   38,   46,   47,  165,  166,  167,  168,  169,  170,  171,  172
  173,  174,  175,  176,  177,  178,  179,  180,  181,  238,  239,  289,  290,  291,  292,  293
  777,  778,  779,  780,  781,  782,  783,  784, 1325, 1326, 1327, 1328, 1329, 1330, 1331, 1332
 1333, 1334, 1335, 1336, 1337, 1338, 1339, 1340, 1341, 1538
*Elset, elset=Uel_Set-MatrixCenter
 2095, 2096, 2097, 2098, 2099, 2100, 2101, 2102, 2103, 2104, 2105, 2106, 2107, 2108, 2109, 2110
 2111, 2112, 2113, 2114, 2115, 2116, 2117, 2118, 2119, 2120, 2121, 2122, 2123, 2124, 2125, 2126
 2127, 2128, 2129, 2130, 2131, 2132, 2133, 2134, 2135, 2136, 2137, 2138, 2139, 2140, 2141, 2142
 2143, 2144, 2145, 2146, 2147, 2148, 2149, 2150, 2151, 2152, 2153, 2154, 2155, 2156, 2157, 2158
 2159, 2160, 2161, 2162, 2163, 2164, 2165, 2166, 2167, 2168, 2169, 2170, 2925
*Nset, nset=Uel_Set-MatrixOut
    1,    2,    3,    4,    5,    6,    7,    8,    9,   10,   11,   12,   13,   14,   15,   16
   17,   18,   19,   20,   21,   22,   23,   24,   25,   26,   29,   30,   31,   32,   33,   34
   35,   36,   37,   38,   39,   40,   41,   42,   43,   44,   45,   46,   47,   48,   49,   50
   51,   52,   53,   54,   55,   56,   57,   58,   59,   60,   61,   62,   63,   64,   65,   66
   67,   68,   69,   70,   71,   72,   73,   74,   75,   76,   77,   78,   79,   80,   81,   82
   83,   84,   85,   86,   87,   88,   89,   90,   91,   92,   93,   94,   95,   96,   97,   98
   99,  100,  101,  102,  103,  104,  105,  106,  107,  108,  109,  110,  111,  112,  113,  114
  115,  116,  117,  118,  119,  121,  122,  123,  125,  126,  127,  128,  129,  130,  131,  132
  133,  134,  135,  136,  137,  138,  139,  140,  142,  143,  144,  145,  146,  147,  149,  150
  151,  152,  153,  154,  155,  156,  157,  158,  159,  160,  161,  162,  163,  164,  183,  184
  185,  186,  187,  188,  189,  190,  191,  192,  193,  194,  195,  196,  197,  198,  199,  200
  201,  202,  203,  204,  205,  206,  207,  208,  209,  210,  211,  212,  213,  214,  215,  216
  217,  218,  219,  220,  221,  222,  223,  224,  225,  226,  227,  228,  229,  230,  231,  232
  233,  234,  235,  236,  237,  238,  239,  240,  241,  242,  243,  244,  245,  246,  247,  248
  249,  250,  251,  252,  253,  254,  255,  256,  257,  258,  259,  260,  261,  262,  263,  264
  265,  266,  267,  268,  269,  270,  271,  272,  273,  274,  275,  276,  277,  278,  279,  280
  281,  282,  283,  284,  285,  286,  287,  288,  289,  290,  291,  292,  293,  294,  295,  296
  297,  298,  299,  300,  301,  302,  303,  304,  305,  306,  307,  308,  309,  310,  311,  312
  313,  314,  315,  316,  317,  318,  319,  320,  321,  322,  323,  324,  325,  326,  327,  328
  329,  330,  331,  332,  333,  334,  335,  336,  337,  338,  339,  340,  341,  342,  343,  344
** ... 59 like lines cut
*Elset, elset=Uel_Set-MatrixOut
   24,   25,   26,   27,   28,   29,   30,   31,   32,   33,   34,   35,   36,   37,   38,   39
   40,   41,   42,   43,   44,   45,   46,   47,   48,   49,   50,   51,   52,   53,   54,   55
   56,   57,   58,   59,   60,   61,   62,   63,  100,  101,  102,  103,  104,  105,  106,  107
  108,  109,  110,  111,  112,  113,  114,  115,  116,  117,  118,  119,  120,  121,  122,  123
  124,  125,  126,  127,  128,  129,  130,  131,  132,  133,  134,  135,  136,  137,  138,  139
  228,  229,  230,  231,  232,  233,  234,  235,  236,  237,  238,  239,  240,  241,  242,  243
  244,  245,  246,  247,  248,  249,  250,  251,  252,  253,  254,  255,  256,  257,  258,  259
  260,  261,  262,  263,  264,  265,  266,  267,  268,  269,  270,  271,  272,  273,  274,  275
  276,  277,  278,  279,  280,  281,  282,  283,  284,  285,  286,  287,  288,  289,  290,  291
  292,  293,  294,  295,  296,  297,  298,  299,  300,  301,  302,  303,  304,  305,  306,  307
  308,  309,  310,  311,  312,  313,  314,  315,  316,  317,  318,  319,  320,  321,  322,  323
  324,  325,  326,  327,  328,  329,  330,  331,  332,  333,  334,  335,  336,  337,  338,  339
  340,  341,  342,  343,  344,  345,  346,  347,  348,  349,  350,  351,  352,  353,  354,  355
  356,  357,  358,  359,  360,  361,  362,  363,  364,  365,  366,  367,  368,  369,  370,  371
  372,  373,  374,  375,  376,  377,  378,  379,  380,  381,  382,  383,  384,  385,  386,  387
  472,  473,  474,  475,  476,  477,  478,  479,  480,  481,  482,  483,  484,  485,  486,  487
  488,  489,  490,  491,  492,  493,  494,  495,  496,  497,  498,  499,  500,  501,  502,  503
  504,  505,  506,  507,  508,  509,  510,  511,  512,  513,  514,  515,  516,  517,  518,  519
  520,  521,  522,  523,  524,  525,  526,  527,  528,  529,  530,  531,  532,  533,  534,  535
  536,  537,  538,  539,  540,  541,  542,  543,  544,  545,  546,  547,  548,  549,  550,  551
** ... 98 like lines cut
*Nset, nset=Uel_Set-Particle
    1,    2,    3,    4,    5,    6,    7,    8,    9,   14,   15,   16,   17,   18,   19,   20
   21,   22,   27,   28,   29,   30,   31,   32,   33,   34,   35,   36,   39,   40,   41,   42
   43,   44,   45,   48,   49,   50,   51,   52,   53,   54,   55,   56,   57,   58,   59,   60
   61,   62,   63,   64,   65,   66,   67,   68,   69,   70,   71,   72,   73,   74,   75,   76
   77,   78,   79,   80,   81,   82,   83,   84,   85,   86,   87,   88,   89,   90,   91,   92
   93,   94,   95,   96,   97,   98,   99,  100,  101,  102,  103,  104,  105,  106,  115,  116
  117,  118,  119,  120,  121,  122,  123,  124,  125,  126,  127,  128,  129,  130,  131,  140
  141,  142,  143,  144,  145,  146,  147,  148,  149,  150,  151,  152,  153,  154,  155,  156
  179,  180,  181,  182,  218,  219,  319,  320,  321,  322,  323,  324,  325,  326,  327,  328
  329,  330,  331,  332,  333,  334,  335,  336,  337,  338,  339,  340,  341,  342,  343,  344
  345,  346,  347,  348,  349,  350,  351,  352,  353,  354,  355,  356,  357,  358,  359,  360
  361,  362,  363,  364,  365,  366,  367,  368,  369,  370,  371,  372,  373,  374,  375,  376
  377,  378,  379,  380,  381,  382,  383,  384,  385,  386,  387,  388,  389,  390,  391,  392
  393,  394,  395,  396,  397,  398,  399,  400,  401,  402,  403,  404,  405,  406,  407,  408
  409,  410,  411,  412,  413,  414,  415,  416,  417,  418,  419,  420,  421,  422,  423,  424
  425,  426,  427,  428,  429,  430,  431,  432,  433,  434,  435,  436,  437,  438,  439,  440
  441,  442,  443,  444,  445,  446,  447,  448,  449,  450,  451,  452,  453,  454,  455,  456
  457,  458,  459,  460,  461,  462,  463,  464,  465,  466,  467,  468,  469,  470,  471,  472
  473,  474,  475,  476,  477,  478,  479,  480,  481,  482,  483,  484,  485,  486,  487,  488
  489,  490,  491,  492,  493,  494,  495,  496,  497,  498,  499,  500,  501,  502,  503,  504
** ... 36 like lines cut
*Elset, elset=Uel_Set-Particle
    1,    2,    3,    4,    5,    6,    7,    8,    9,   10,   11,   12,   13,   14,   15,   16
   17,   18,   19,   20,   21,   22,   23,   64,   65,   66,   67,   68,   69,   70,   71,   72
   73,   74,   75,   76,   77,   78,   79,   80,   81,   82,   83,   84,   85,   86,   87,   88
   89,   90,   91,   92,   93,   94,   95,   96,   97,   98,   99,  140,  141,  142,  143,  144
  145,  146,  147,  148,  149,  150,  151,  152,  153,  154,  155,  156,  157,  158,  159,  160
  161,  162,  163,  164,  165,  166,  167,  168,  169,  170,  171,  172,  173,  174,  175,  176
  177,  178,  179,  180,  181,  182,  183,  184,  185,  186,  187,  188,  189,  190,  191,  192
  193,  194,  195,  196,  197,  198,  199,  200,  201,  202,  203,  204,  205,  206,  207,  208
  209,  210,  211,  212,  213,  214,  215,  216,  217,  218,  219,  220,  221,  222,  223,  224
  225,  226,  227,  388,  389,  390,  391,  392,  393,  394,  395,  396,  397,  398,  399,  400
  401,  402,  403,  404,  405,  406,  407,  408,  409,  410,  411,  412,  413,  414,  415,  416
  417,  418,  419,  420,  421,  422,  423,  424,  425,  426,  427,  428,  429,  430,  431,  432
  433,  434,  435,  436,  437,  438,  439,  440,  441,  442,  443,  444,  445,  446,  447,  448
  449,  450,  451,  452,  453,  454,  455,  456,  457,  458,  459,  460,  461,  462,  463,  464
  465,  466,  467,  468,  469,  470,  471,  688,  689,  690,  691,  692,  693,  694,  695,  696
  697,  698,  699,  700,  701,  702,  703,  704,  705,  706,  707,  708,  709,  710,  711,  712
  713,  714,  715,  716,  717,  718,  719,  720,  721,  722,  723,  724,  725,  726,  727,  728
  729,  730,  731,  732,  733,  734,  735,  736,  737,  738,  739,  740,  741,  742,  743,  744
  745,  746,  747,  748,  749,  750,  751,  752,  753,  754,  755,  756,  757,  758,  759,  760
  761,  762,  763,  764,  765,  766,  767,  768,  769,  770,  771,  772,  773,  774,  775,  776
** ... 40 like lines cut
*Elset, elset=CohesiveSeam-1-Elements, generate
 2926,  3045,     1
*Nset, nset=CohesiveSeam-1-TopNodes
   27,   28,   31,   32,   33,   34,   35,   39,   40,   41,   42,   43,   44,   45,   48,  165
  166,  167,  168,  169,  170,  171,  172,  173,  174,  175,  176,  177,  178,  183,  184,  185
  186,  187,  188,  189,  190,  191,  192,  193,  194,  195,  196,  197,  198,  199,  200,  201
  202,  203,  204,  205,  206,  207,  208,  209,  210,  211,  212,  213,  214,  215,  216,  217
  240,  241,  242,  243,  244,  245,  246,  247,  248,  249,  250,  251,  252,  253,  254,  255
  256,  257,  258,  259,  260,  261,  262,  263,  264,  265,  266,  267,  268,  269,  270,  271
  272,  273,  274,  275,  276,  277,  278,  279,  280,  281,  282,  283,  284,  285,  286,  287
  288, 1637, 1638, 1639, 1640, 1641, 1642, 1643
*Nset, nset=CohesiveSeam-1-BottomNodes
   27,   28,   31,   32,   33,   34,   35,   39,   40,   41,   42,   43,   44,   45,   48,  312
  313,  314,  315,  316,  317,  318, 1539, 1540, 1541, 1542, 1543, 1544, 1545, 1546, 1547, 1548
 1549, 1550, 1551, 1552, 1553, 1554, 1555, 1556, 1557, 1558, 1559, 1560, 1561, 1562, 1563, 1564
 1565, 1566, 1567, 1568, 1569, 1570, 1571, 1572, 1573, 1574, 1575, 1576, 1577, 1578, 1579, 1580
 1581, 1582, 1583, 1584, 1585, 1586, 1587, 1588, 1589, 1590, 1591, 1592, 1593, 1594, 1595, 1596
 1597, 1598, 1599, 1600, 1601, 1602, 1603, 1604, 1605, 1606, 1607, 1608, 1609, 1610, 1611, 1612
 1613, 1614, 1615, 1616, 1617, 1618, 1619, 1620, 1621, 1622, 1623, 1624, 1625, 1626, 1627, 1628
 1629, 1630, 1631, 1632, 1633, 1634, 1635, 1636
*Nset, nset=CohesiveSeam-1-MidNodes
 27, 28, 31, 32, 33, 34, 35, 39, 40, 41, 42, 43, 44, 45, 48
*Elset, elset=__PickedSurf62_S3, internal, generate
 2926,  3045,     1
*Surface, type=ELEMENT, name=_PickedSurf62, internal
__PickedSurf62_S3, S3
*Elset, elset=_CohesiveSeam-1-TopSurf_S3, internal, generate
 2926,  3045,     1
*Surface, type=ELEMENT, name=CohesiveSeam-1-TopSurf
_CohesiveSeam-1-TopSurf_S3, S3
*Elset, elset=_CohesiveSeam-1-BottomSurf_S1, internal, generate
 2926,  3045,     1
*Surface, type=ELEMENT, name=CohesiveSeam-1-BottomSurf
_CohesiveSeam-1-BottomSurf_S1, S1
** Section: Section-UelParticle
*Solid Section, elset=Uel_Set-Particle, material=Material-Uel
,
** Section: Section-UelMatrixOut
*Solid Section, elset=Uel_Set-MatrixOut, material=Material-Uel
,
** Section: Section-UelMatrixCenter
*Solid Section, elset=Uel_Set-MatrixCenter, material=Material-Uel
,
** Section: Section-Coh
*Cohesive Section, elset=CohesiveSeam-1-Elements, controls=EC-1, material=Material-Coh, response=TRACTION SEPARATION
, 
*End Part
**  
**
** ASSEMBLY
**
*Assembly, name=Assembly
**  
*Instance, name=Plate-1, part=Plate
*End Instance
**  
*Nset, nset=Set-BTM, instance=Plate-1
 112, 113, 801, 802, 803, 804, 805, 806, 807, 808, 809
*Elset, elset=Set-BTM, instance=Plate-1
 2513, 2527, 2530, 2531, 2533, 2716, 2868, 2878, 2894, 2902
*Nset, nset=Set-LEFT, instance=Plate-1
  11,  12, 133, 134, 135, 136, 137
*Elset, elset=Set-LEFT, instance=Plate-1
  32,  46,  52,  53,  55,  63, 549, 550, 569, 643, 668, 682
*Nset, nset=Set-LOW, instance=Plate-1
 108, 113
*Nset, nset=Set-RIGHT, instance=Plate-1
  24,  25, 159, 160, 161, 162, 163
*Elset, elset=Set-RIGHT, instance=Plate-1
 108, 112, 119, 129, 131, 132, 285, 296, 299, 300, 381, 387
*Nset, nset=Set-TOP, instance=Plate-1
 108, 109, 753, 754, 755, 756, 757, 758, 759, 760, 761
*Elset, elset=Set-TOP, instance=Plate-1
 1449, 1459, 1461, 1675, 1704, 1705, 1885, 1896, 2066, 2068
*End Assembly
** 
** ELEMENT CONTROLS
** 
*Section Controls, name=EC-1, ELEMENT DELETION=NO, VISCOSITY=0.0001
1., 1., 1.
** 
** MATERIALS
** 
*Material, name=Material-Coh
*Damage Initiation, criterion=MAXS
100.,100.,100.
*Damage Evolution, type=ENERGY, mixed mode behavior=BK, power=2.5
 0.0091, 0.0091, 0.0091
*Damage Stabilization
0.0001
*Elastic, type=TRACTION
87000.,87000.,87000.
*Material, name=Material-Uel
*Density
 0.00785,
*Depvar
     24,
*User Material, constants=2
 1e-11, 0.3
** ----------------------------------------------------------------
** 
** STEP: Step-1
** 
*Step, name=Step-1, nlgeom=NO, extrapolation=NO, inc=20000, convert sdi=YES
*Static, direct=NO STOP
5e-05, 1., 
** 
** BOUNDARY CONDITIONS
** 
** Name: BC-BTM Type: Displacement/Rotation
*Boundary
Set-BTM, 1, 1, -0.0002
** Name: BC-LOW Type: Displacement/Rotation
*Boundary
Set-LOW, 2, 2
** Name: BC-TOP Type: Displacement/Rotation
*Boundary
Set-TOP, 1, 1, 0.0002
** 
** OUTPUT REQUESTS
** 
*Restart, write, frequency=0
** 
** FIELD OUTPUT: F-Output-1
** 
*Output, field, frequency=20
*Node Output
CF, RF, U
*Element Output, directions=YES
LE, PE, PEEQ, PEMAG, S, SDV
*Contact Output
CDISP, CSTRESS
** 
** HISTORY OUTPUT: H-Output-1
** 
*Output, history, variable=PRESELECT, frequency=20
*End Step
