*Heading
** Job name: Job-1 Model name: Model-1
** Generated by: Abaqus/CAE 2022
*Preprint, echo=NO, model=NO, history=NO, contact=NO
**
** PARTS
**
*Part, name=Part-1
*Node
      3,          0.5,          0.5
      4,          0.5,           1.
      8,          0.5,           0.
    510,          0.5,  0.500999987
    511,          0.5,  0.501999974
    512,          0.5,  0.503000021
    513,          0.5,  0.504000008
    514,          0.5,  0.504999995
    515,          0.5,  0.505999982
    516,          0.5,  0.507000029
    517,          0.5,  0.508000016
    518,          0.5,  0.509000003
    519,          0.5,   0.50999999
    520,          0.5,  0.510999978
    521,          0.5,  0.512000024
    522,          0.5,  0.513000011
    523,          0.5,  0.513999999
    524,          0.5,  0.514999986
    525,          0.5,  0.515999973
    526,          0.5,   0.51700002
** ... 16981 like lines cut
**********************  RECTENGULAR  **************************
** -------------------- Displacement --------------------------
*User element, nodes=4, type=U2, properties=12, coordinates=2, VARIABLES=120
1,2
** -------------------- Phase  field --------------------------
*User element, nodes=4, type=U4, properties=5, coordinates=2, VARIABLES=12
3
***************************************************************
***************************************************************
*Element, type=U2
1, 109497, 110247, 110427, 109496
2, 109500, 112921, 110246, 109499
3, 111419, 111563, 111707, 112922
4, 109709, 109710, 112885, 112893
5, 112939, 110051, 112905, 112893
6, 112905, 112892, 109707, 109708
7, 109705, 109706, 112894, 112914
8, 112914, 112915, 109704, 109705
9, 109492, 109704, 112915, 109703
10, 109507, 109508, 110204, 110235
11, 109514, 109515, 110238, 110219
12, 111966, 111705, 110033, 111835
13, 112288, 112192, 112366, 112511
14, 112748, 112715, 112951, 112965
15, 112910, 110060, 110061, 112913
16, 109701, 112897, 112895, 109700
17, 109702, 112923, 112897, 109701
18, 109703, 112915, 112923, 109702
19, 110208, 110231, 109521, 109522
20, 110216, 110210, 109527, 109528
** ... 13783 like lines cut
***************************************************************
*Element, type=U4
13804, 109497, 110247, 110427, 109496
13805, 109500, 112921, 110246, 109499
13806, 111419, 111563, 111707, 112922
13807, 109709, 109710, 112885, 112893
13808, 112939, 110051, 112905, 112893
13809, 112905, 112892, 109707, 109708
13810, 109705, 109706, 112894, 112914
13811, 112914, 112915, 109704, 109705
13812, 109492, 109704, 112915, 109703
13813, 109507, 109508, 110204, 110235
13814, 109514, 109515, 110238, 110219
13815, 111966, 111705, 110033, 111835
13816, 112288, 112192, 112366, 112511
13817, 112748, 112715, 112951, 112965
13818, 112910, 110060, 110061, 112913
13819, 109701, 112897, 112895, 109700
13820, 109702, 112923, 112897, 109701
13821, 109703, 112915, 112923, 109702
13822, 110208, 110231, 109521, 109522
13823, 110216, 110210, 109527, 109528
** ... 13783 like lines cut
***************************************************************
*Element, type=CPE4
27607, 109497, 110247, 110427, 109496
27608, 109500, 112921, 110246, 109499
27609, 111419, 111563, 111707, 112922
27610, 109709, 109710, 112885, 112893
27611, 112939, 110051, 112905, 112893
27612, 112905, 112892, 109707, 109708
27613, 109705, 109706, 112894, 112914
27614, 112914, 112915, 109704, 109705
27615, 109492, 109704, 112915, 109703
27616, 109507, 109508, 110204, 110235
27617, 109514, 109515, 110238, 110219
27618, 111966, 111705, 110033, 111835
27619, 112288, 112192, 112366, 112511
27620, 112748, 112715, 112951, 112965
27621, 112910, 110060, 110061, 112913
27622, 109701, 112897, 112895, 109700
27623, 109702, 112923, 112897, 109701
27624, 109703, 112915, 112923, 109702
27625, 110208, 110231, 109521, 109522
27626, 110216, 110210, 109527, 109528
** ... 13783 like lines cut
***************************************************************
*Element, type=COH2D4
41410, 123387, 123586,      8, 109934
41411, 123388, 123387, 109934, 109933
41412, 123389, 123388, 109933, 109932
41413, 123390, 123389, 109932, 109931
41414, 123391, 123390, 109931, 109930
41415, 123392, 123391, 109930, 109929
41416, 123393, 123392, 109929, 109928
41417, 123394, 123393, 109928, 109927
41418, 123395, 123394, 109927, 109926
41419, 123396, 123395, 109926, 109925
41420, 123397, 123396, 109925, 109924
41421, 123398, 123397, 109924, 109923
41422, 123399, 123398, 109923, 109922
41423, 123400, 123399, 109922, 109921
41424, 123401, 123400, 109921, 109920
41425, 123402, 123401, 109920, 109919
41426, 123403, 123402, 109919, 109918
41427, 123404, 123403, 109918, 109917
41428, 123405, 123404, 109917, 109916
41429, 123406, 123405, 109916, 109915
** ... 180 like lines cut
***************************************************************
********************** ASSIGNING MATERIAL PROP ****************
*Nset, nset=Uel-Set-Plate1
 109439, 109490, 109491, 109492, 109495, 109496, 109497, 109498, 109499, 109500, 109501, 109502, 109503, 109504, 109505, 109506
 109507, 109508, 109509, 109510, 109511, 109512, 109513, 109514, 109515, 109516, 109517, 109518, 109519, 109520, 109521, 109522
 109523, 109524, 109525, 109526, 109527, 109528, 109529, 109530, 109531, 109532, 109533, 109534, 109535, 109536, 109537, 109538
 109539, 109540, 109541, 109542, 109543, 109544, 109545, 109546, 109547, 109548, 109549, 109550, 109551, 109552, 109553, 109554
 109555, 109556, 109557, 109558, 109559, 109560, 109561, 109562, 109563, 109564, 109565, 109566, 109567, 109568, 109569, 109570
 109571, 109572, 109573, 109574, 109575, 109576, 109577, 109578, 109579, 109580, 109581, 109582, 109583, 109584, 109585, 109586
 109587, 109588, 109589, 109590, 109591, 109592, 109593, 109693, 109694, 109695, 109696, 109697, 109698, 109699, 109700, 109701
 109702, 109703, 109704, 109705, 109706, 109707, 109708, 109709, 109710, 109711, 109712, 109713, 109714, 109957, 109958, 109959
 109960, 109961, 109962, 109963, 109964, 109965, 109966, 109967, 109968, 109969, 109970, 109971, 109972, 109973, 109974, 109975
 109976, 109977, 109978, 109979, 109980, 109981, 109982, 109983, 109984, 109985, 109986, 109987, 109988, 109989, 109990, 109991
 109992, 109993, 109994, 109995, 109996, 109997, 109998, 109999, 110000, 110001, 110002, 110003, 110004, 110005, 110006, 110007
 110008, 110009, 110010, 110011, 110012, 110013, 110014, 110015, 110016, 110017, 110018, 110019, 110020, 110021, 110022, 110023
 110024, 110025, 110026, 110027, 110028, 110029, 110030, 110031, 110032, 110033, 110034, 110035, 110036, 110037, 110038, 110039
 110040, 110041, 110042, 110043, 110044, 110045, 110046, 110047, 110048, 110049, 110050, 110051, 110052, 110053, 110054, 110055
 110056, 110057, 110058, 110059, 110060, 110061, 110062, 110063, 110064, 110065, 110066, 110067, 110068, 110069, 110070, 110071
 110072, 110073, 110074, 110075, 110076, 110077, 110078, 110079, 110080, 110081, 110082, 110083, 110084, 110085, 110086, 110087
 110088, 110089, 110090, 110091, 110092, 110093, 110094, 110095, 110096, 110097, 110098, 110099, 110100, 110101, 110102, 110103
 110104, 110105, 110106, 110107, 110108, 110109, 110110, 110111, 110112, 110113, 110114, 110115, 110116, 110117, 110118, 110119
 110120, 110121, 110122, 110123, 110124, 110125, 110126, 110127, 110128, 110129, 110130, 110131, 110132, 110133, 110134, 110135
 110136, 110137, 110138, 110139, 110140, 110141, 110142, 110143, 110144, 110145, 110146, 110147, 110148, 110149, 110150, 110151
** ... 421 like lines cut
*Elset, elset=Uel-Set-Plate1
     1,     2,     3,     4,     5,     6,     7,     8,     9,    10,    11,    12,    13,    14,    15,    16
    17,    18,    19,    20,    21,    22,    23,    24,    25,    26,    27,    28,    29,    30,    31,    32
    33,    34,    35,    36,    37,    38,    39,    40,    41,    42,    43,    44,    45,    46,    47,    48
    49,    50,    51,    52,    53,    54,    55,    56,    57,    58,    59,    60,    61,    62,    63,    64
    65,    66,    67,    68,    69,    70,    71,    72,    73,    74,    75,    76,    77,    78,    79,    80
    81,    82,    83,    84,    85,    86,    87,    88,    89,    90,    91,    92,    93,    94,    95,    96
    97,    98,    99,   100,   101,   102,   103,   104,   105,   106,   107,   108,   109,   110,   111,   112
   113,   114,   115,   116,   117,   118,   119,   120,   121,   122,   123,   124,   125,   126,   127,   128
   129,   130,   131,   132,   133,   134,   135,   136,   137,   138,   139,   140,   141,   142,   143,   144
   145,   146,   147,   148,   149,   150,   151,   152,   153,   154,   155,   156,   157,   158,   159,   160
   161,   162,   163,   164,   165,   166,   167,   168,   169,   170,   171,   172,   173,   174,   175,   176
   177,   178,   179,   180,   181,   182,   183,   184,   185,   186,   187,   188,   189,   190,   191,   192
   193,   194,   195,   196,   197,   198,   199,   200,   201,   202,   203,   204,   205,   206,   207,   208
   209,   210,   211,   212,   213,   214,   215,   216,   217,   218,   219,   220,   221,   222,   223,   224
   225,   226,   227,   228,   229,   230,   231,   232,   233,   234,   235,   236,   237,   238,   239,   240
   241,   242,   243,   244,   245,   246,   247,   248,   249,   250,   251,   252,   253,   254,   255,   256
   257,   258,   259,   260,   261,   262,   263,   264,   265,   266,   267,   268,   269,   270,   271,   272
   273,   274,   275,   276,   277,   278,   279,   280,   281,   282,   283,   284,   285,   286,   287,   288
   289,   290,   291,   292,   293,   294,   295,   296,   297,   298,   299,   300,   301,   302,   303,   304
   305,   306,   307,   308,   309,   310,   311,   312,   313,   314,   315,   316,   317,   318,   319,   320
** ... 410 like lines cut
*Nset, nset=Uel-Set-Plate2
      3,      4,      8, 109389, 109493, 109494, 109594, 109595, 109596, 109597, 109598, 109599, 109600, 109601, 109602, 109603
 109604, 109605, 109606, 109607, 109608, 109609, 109610, 109611, 109612, 109613, 109614, 109615, 109616, 109617, 109618, 109619
 109620, 109621, 109622, 109623, 109624, 109625, 109626, 109627, 109628, 109629, 109630, 109631, 109632, 109633, 109634, 109635
 109636, 109637, 109638, 109639, 109640, 109641, 109642, 109643, 109644, 109645, 109646, 109647, 109648, 109649, 109650, 109651
 109652, 109653, 109654, 109655, 109656, 109657, 109658, 109659, 109660, 109661, 109662, 109663, 109664, 109665, 109666, 109667
 109668, 109669, 109670, 109671, 109672, 109673, 109674, 109675, 109676, 109677, 109678, 109679, 109680, 109681, 109682, 109683
 109684, 109685, 109686, 109687, 109688, 109689, 109690, 109691, 109692, 109715, 109716, 109717, 109718, 109719, 109720, 109721
 109722, 109723, 109724, 109725, 109726, 109727, 109728, 109729, 109730, 109731, 109732, 109733, 109734, 109735, 109736, 109737
 109738, 109739, 109740, 109741, 109742, 109743, 109744, 109745, 109746, 109747, 109748, 109749, 109750, 109751, 109752, 109753
 109754, 109755, 109756, 109757, 109758, 109759, 109760, 109761, 109762, 109763, 109764, 109765, 109766, 109767, 109768, 109769
 109770, 109771, 109772, 109773, 109774, 109775, 109776, 109777, 109778, 109779, 109780, 109781, 109782, 109783, 109784, 109785
 109786, 109787, 109788, 109789, 109790, 109791, 109792, 109793, 109794, 109795, 109796, 109797, 109798, 109799, 109800, 109801
 109802, 109803, 109804, 109805, 109806, 109807, 109808, 109809, 109810, 109811, 109812, 109813, 109814, 109815, 109816, 109817
 109818, 109819, 109820, 109821, 109822, 109823, 109824, 109825, 109826, 109827, 109828, 109829, 109830, 109831, 109832, 109833
 109834, 109835, 109836, 109837, 109838, 109839, 109840, 109841, 109842, 109843, 109844, 109845, 109846, 109847, 109848, 109849
 109850, 109851, 109852, 109853, 109854, 109855, 109856, 109857, 109858, 109859, 109860, 109861, 109862, 109863, 109864, 109865
 109866, 109867, 109868, 109869, 109870, 109871, 109872, 109873, 109874, 109875, 109876, 109877, 109878, 109879, 109880, 109881
 109882, 109883, 109884, 109885, 109886, 109887, 109888, 109889, 109890, 109891, 109892, 109893, 109894, 109895, 109896, 109897
 109898, 109899, 109900, 109901, 109902, 109903, 109904, 109905, 109906, 109907, 109908, 109909, 109910, 109911, 109912, 109913
 109914, 109915, 109916, 109917, 109918, 109919, 109920, 109921, 109922, 109923, 109924, 109925, 109926, 109927, 109928, 109929
** ... 421 like lines cut
*Elset, elset=Uel-Set-Plate2, generate
  3226,  10152,      1
*Elset, elset=CohesiveSeam-1-Elements, generate
41410, 41609, 1, 
*Nset, nset=CohesiveSeam-1-TopNodes
      3,      4,      8, 109594, 109595, 109596, 109597, 109598, 109599, 109600, 109601, 109602, 109603, 109604, 109605, 109606
 109607, 109608, 109609, 109610, 109611, 109612, 109613, 109614, 109615, 109616, 109617, 109618, 109619, 109620, 109621, 109622
 109623, 109624, 109625, 109626, 109627, 109628, 109629, 109630, 109631, 109632, 109633, 109634, 109635, 109636, 109637, 109638
 109639, 109640, 109641, 109642, 109643, 109644, 109645, 109646, 109647, 109648, 109649, 109650, 109651, 109652, 109653, 109654
 109655, 109656, 109657, 109658, 109659, 109660, 109661, 109662, 109663, 109664, 109665, 109666, 109667, 109668, 109669, 109670
 109671, 109672, 109673, 109674, 109675, 109676, 109677, 109678, 109679, 109680, 109681, 109682, 109683, 109684, 109685, 109686
 109687, 109688, 109689, 109690, 109691, 109692, 109836, 109837, 109838, 109839, 109840, 109841, 109842, 109843, 109844, 109845
 109846, 109847, 109848, 109849, 109850, 109851, 109852, 109853, 109854, 109855, 109856, 109857, 109858, 109859, 109860, 109861
 109862, 109863, 109864, 109865, 109866, 109867, 109868, 109869, 109870, 109871, 109872, 109873, 109874, 109875, 109876, 109877
 109878, 109879, 109880, 109881, 109882, 109883, 109884, 109885, 109886, 109887, 109888, 109889, 109890, 109891, 109892, 109893
 109894, 109895, 109896, 109897, 109898, 109899, 109900, 109901, 109902, 109903, 109904, 109905, 109906, 109907, 109908, 109909
 109910, 109911, 109912, 109913, 109914, 109915, 109916, 109917, 109918, 109919, 109920, 109921, 109922, 109923, 109924, 109925
 109926, 109927, 109928, 109929, 109930, 109931, 109932, 109933, 109934
*Nset, nset=CohesiveSeam-1-BottomNodes, generate
 123387,  123587,       1
*Elset, elset=__PickedSurf15_S4, internal
30833, 31011, 31019, 31020, 31022, 31024, 31025, 31026, 31027, 31028, 31029, 31032, 31033, 31034, 31035, 31036, 
31037, 31038, 31039, 31042, 31043, 31044, 31045, 31046, 31047, 31048, 31049, 31050, 31053, 31054, 31055, 31056, 
31057, 31058, 31059, 31060, 31063, 31064, 31065, 31066, 31067, 31068, 31069, 31070, 31071, 31074, 31075, 31076, 
31077, 31078, 31079, 31080, 31081, 31084, 31085, 31086, 31087, 31088, 31089, 31090, 31091, 31197, 31199, 34675, 
*Elset, elset=__PickedSurf15_S2, internal
30834, 30835, 30894, 30895, 30896, 30897, 31008, 31021, 31023, 31031, 31041, 31052, 31062, 31073, 31083, 31092, 
31093, 31094, 31098, 31102, 31104, 31115, 31117, 31118, 31120, 31193, 31196, 31202, 31214, 31222, 31232, 31243, 
31253, 31261, 31387, 34674, 
*Elset, elset=__PickedSurf15_S3, internal
31095, 34680, 34683, 34684, 34686, 34687, 34688, 34689, 34690, 34693, 34694, 34696, 34697, 34698, 34699, 34700, 
34701, 34704, 34705, 34707, 34708, 34709, 34710, 34711, 34714, 34715, 34717, 34718, 34719, 34720, 34721, 34722, 
34725, 34726, 34728, 34729, 34730, 34731, 34732, 34734, 34735, 34738, 34739, 34740, 34741, 34744, 34745, 34747, 
34750, 34752, 34754, 34755, 34858, 34860, 34870, 
*Elset, elset=__PickedSurf15_S1, internal
31271, 34566, 34568, 34575, 34602, 34603, 34677, 34678, 34681, 34685, 34692, 34695, 34703, 34706, 34713, 34716, 
34724, 34727, 34736, 34737, 34743, 34746, 34774, 34776, 34777, 34861, 34864, 34865, 34872, 34878, 34881, 34887, 
34892, 34898, 34902, 34909, 34913, 34919, 34923, 34928, 34931, 34936, 34943, 37679, 37681, 
*Surface, type=ELEMENT, name=_PickedSurf15, internal
__PickedSurf15_S4, S4
__PickedSurf15_S2, S2
__PickedSurf15_S3, S3
__PickedSurf15_S1, S1
*Elset, elset=__PickedSurf36_S4, internal
27607, 27608, 27697, 27698, 30833, 31011, 31019, 31020, 31022, 31024, 31025, 31026, 31027, 31028, 31029, 31032, 
31033, 31034, 31035, 31036, 31037, 31038, 31039, 31042, 31043, 31044, 31045, 31046, 31047, 31048, 31049, 31050, 
31053, 31054, 31055, 31056, 31057, 31058, 31059, 31060, 31063, 31064, 31065, 31066, 31067, 31068, 31069, 31070, 
31071, 31074, 31075, 31076, 31077, 31078, 31079, 31080, 31081, 31084, 31085, 31086, 31087, 31088, 31089, 31090, 
31091, 31197, 31199, 34675, 37759, 37764, 37765, 37768, 37769, 37852, 37853, 37857, 37858, 37861, 37865, 37870, 
37874, 37876, 37878, 37881, 37885, 37964, 37968, 37971, 37972, 37974, 37977, 37980, 37981, 37982, 37984, 37987, 
37988, 37993, 37997, 37999, 38000, 38001, 38103, 38128, 38151, 38159, 38299, 
*Elset, elset=__PickedSurf36_S1, internal
27616, 27617, 27632, 27699, 27701, 27702, 27703, 27704, 27705, 27707, 27708, 27709, 27712, 27715, 27716, 27719, 
27720, 27721, 27724, 27726, 27728, 27729, 27731, 27732, 27998, 27999, 28001, 28009, 28017, 28019, 28026, 31271, 
34516, 34517, 34525, 34526, 34534, 34535, 34550, 34551, 34559, 34564, 34566, 34568, 34575, 34602, 34603, 34609, 
34612, 34613, 34617, 34619, 34622, 34623, 34631, 34632, 34639, 34640, 34649, 34650, 34657, 34664, 34665, 34666, 
34667, 34674, 34677, 34678, 34681, 34685, 34692, 34695, 34703, 34706, 34713, 34716, 34724, 34727, 34736, 34737, 
34743, 34746, 34759, 34763, 34774, 34776, 34777, 34781, 34782, 34797, 34800, 34810, 34814, 34823, 34826, 34834, 
34838, 34846, 34850, 34859, 34861, 34864, 34865, 34872, 34878, 34881, 34887, 34892, 34898, 34902, 34909, 34913, 
34919, 34923, 34928, 34931, 34936, 34943, 35129, 37679, 37681, 38171, 38196, 
*Elset, elset=__PickedSurf36_S3, internal
27625, 27626, 27700, 27710, 27711, 27713, 27714, 27717, 27727, 27733, 28002, 28025, 28028, 28031, 31095, 34565, 
34576, 34605, 34607, 34611, 34615, 34616, 34621, 34624, 34625, 34626, 34627, 34628, 34630, 34633, 34634, 34635, 
34636, 34637, 34638, 34641, 34642, 34643, 34644, 34645, 34646, 34647, 34648, 34651, 34652, 34653, 34654, 34655, 
34656, 34659, 34660, 34661, 34662, 34663, 34669, 34670, 34671, 34672, 34673, 34680, 34683, 34684, 34686, 34687, 
34688, 34689, 34690, 34693, 34694, 34696, 34697, 34698, 34699, 34700, 34701, 34704, 34705, 34707, 34708, 34709, 
34710, 34711, 34714, 34715, 34717, 34718, 34719, 34720, 34721, 34722, 34725, 34726, 34728, 34729, 34730, 34731, 
34732, 34734, 34735, 34738, 34739, 34740, 34741, 34744, 34745, 34747, 34750, 34752, 34754, 34755, 34786, 34790, 
34794, 34803, 34805, 34817, 34830, 34842, 34853, 34858, 34860, 34870, 34945, 35128, 37883, 37887, 
*Elset, elset=__PickedSurf36_S2, internal
27840, 30834, 30835, 30894, 30895, 30896, 30897, 31008, 31021, 31023, 31031, 31041, 31052, 31062, 31073, 31083, 
31092, 31093, 31094, 31098, 31102, 31104, 31115, 31117, 31118, 31120, 31193, 31196, 31202, 31214, 31222, 31232, 
31243, 31253, 31261, 31387, 34674, 37761, 37762, 37827, 37828, 37829, 37830, 37851, 37854, 37855, 37859, 37862, 
37863, 37864, 37866, 37867, 37868, 37869, 37871, 37873, 37875, 37877, 37879, 37880, 37882, 37884, 37888, 37958, 
37970, 37973, 37976, 37983, 37986, 37990, 37992, 37994, 37996, 38018, 38020, 38022, 38104, 38108, 38109, 38111, 
38114, 38118, 38121, 38124, 38130, 38134, 38150, 38153, 38155, 38161, 38165, 38169, 38180, 38300, 
*Surface, type=ELEMENT, name=_PickedSurf36, internal
__PickedSurf36_S4, S4
__PickedSurf36_S1, S1
__PickedSurf36_S2, S2
__PickedSurf36_S3, S3
*Elset, elset=__PickedSurf45_S4, internal
30833, 31011, 31019, 31020, 31022, 31024, 31025, 31026, 31027, 31028, 31029, 31032, 31033, 31034, 31035, 31036, 
31037, 31038, 31039, 31042, 31043, 31044, 31045, 31046, 31047, 31048, 31049, 31050, 31053, 31054, 31055, 31056, 
31057, 31058, 31059, 31060, 31063, 31064, 31065, 31066, 31067, 31068, 31069, 31070, 31071, 31074, 31075, 31076, 
31077, 31078, 31079, 31080, 31081, 31084, 31085, 31086, 31087, 31088, 31089, 31090, 31091, 31197, 31199, 34675, 
*Elset, elset=__PickedSurf45_S2, internal
30834, 30835, 30894, 30895, 30896, 30897, 31008, 31021, 31023, 31031, 31041, 31052, 31062, 31073, 31083, 31092, 
31093, 31094, 31098, 31102, 31104, 31115, 31117, 31118, 31120, 31193, 31196, 31202, 31214, 31222, 31232, 31243, 
31253, 31261, 31387, 34674, 
*Elset, elset=__PickedSurf45_S3, internal
31095, 34680, 34683, 34684, 34686, 34687, 34688, 34689, 34690, 34693, 34694, 34696, 34697, 34698, 34699, 34700, 
34701, 34704, 34705, 34707, 34708, 34709, 34710, 34711, 34714, 34715, 34717, 34718, 34719, 34720, 34721, 34722, 
34725, 34726, 34728, 34729, 34730, 34731, 34732, 34734, 34735, 34738, 34739, 34740, 34741, 34744, 34745, 34747, 
34750, 34752, 34754, 34755, 34858, 34860, 34870, 
*Elset, elset=__PickedSurf45_S1, internal
31271, 34566, 34568, 34575, 34602, 34603, 34677, 34678, 34681, 34685, 34692, 34695, 34703, 34706, 34713, 34716, 
34724, 34727, 34736, 34737, 34743, 34746, 34774, 34776, 34777, 34861, 34864, 34865, 34872, 34878, 34881, 34887, 
34892, 34898, 34902, 34909, 34913, 34919, 34923, 34928, 34931, 34936, 34943, 37679, 37681, 
*Surface, type=ELEMENT, name=_PickedSurf45, internal
__PickedSurf45_S4, S4
__PickedSurf45_S2, S2
__PickedSurf45_S3, S3
__PickedSurf45_S1, S1
*Elset, elset=_CohesiveSeam-1-TopSurf_S3, internal, generate
41410, 41609, 1, 
*Surface, type=ELEMENT, name=CohesiveSeam-1-TopSurf
_CohesiveSeam-1-TopSurf_S3, S3
*Elset, elset=_CohesiveSeam-1-BottomSurf_S1, internal, generate
41410, 41609, 1, 
*Surface, type=ELEMENT, name=CohesiveSeam-1-BottomSurf
_CohesiveSeam-1-BottomSurf_S1, S1
***************************************************************
*Uel property, elset=Uel-Set-Plate1
210000, 0.3, 210000, 210000, 0, 1, 0.00785, 1, 
0, 0.01, 2.7, 0
*Uel property, elset=Uel-Set-Plate2
252000, 0.3, 252000, 252000, 0, 1, 0.00785, 1, 
0, 0.01, 2.25, 0
**E, nu, Y, H, eps_cr, thick, rho, anisoswt 
**plswt, lc, gc, drswt 
***************************************************************
*Elset, elset=Uel-Set-Plate1_PH
13804, 13805, 13806, 13807, 13808, 13809, 13810, 13811, 13812, 13813, 13814, 13815, 13816, 13817, 13818, 13819, 
13820, 13821, 13822, 13823, 13824, 13825, 13826, 13827, 13828, 13829, 13830, 13831, 13832, 13833, 13834, 13835, 
13836, 13837, 13838, 13839, 13840, 13841, 13842, 13843, 13844, 13845, 13846, 13847, 13848, 13849, 13850, 13851, 
13852, 13853, 13854, 13855, 13856, 13857, 13858, 13859, 13860, 13861, 13862, 13863, 13864, 13865, 13866, 13867, 
13868, 13869, 13870, 13871, 13872, 13873, 13874, 13875, 13876, 13877, 13878, 13879, 13880, 13881, 13882, 13883, 
13884, 13885, 13886, 13887, 13888, 13889, 13890, 13891, 13892, 13893, 13894, 13895, 13896, 13897, 13898, 13899, 
13900, 13901, 13902, 13903, 13904, 13905, 13906, 13907, 13908, 13909, 13910, 13911, 13912, 13913, 13914, 13915, 
13916, 13917, 13918, 13919, 13920, 13921, 13922, 13923, 13924, 13925, 13926, 13927, 13928, 13929, 13930, 13931, 
13932, 13933, 13934, 13935, 13936, 13937, 13938, 13939, 13940, 13941, 13942, 13943, 13944, 13945, 13946, 13947, 
13948, 13949, 13950, 13951, 13952, 13953, 13954, 13955, 13956, 13957, 13958, 13959, 13960, 13961, 13962, 13963, 
13964, 13965, 13966, 13967, 13968, 13969, 13970, 13971, 13972, 13973, 13974, 13975, 13976, 13977, 13978, 13979, 
13980, 13981, 13982, 13983, 13984, 13985, 13986, 13987, 13988, 13989, 13990, 13991, 13992, 13993, 13994, 13995, 
13996, 13997, 13998, 13999, 14000, 14001, 14002, 14003, 14004, 14005, 14006, 14007, 14008, 14009, 14010, 14011, 
14012, 14013, 14014, 14015, 14016, 14017, 14018, 14019, 14020, 14021, 14022, 14023, 14024, 14025, 14026, 14027, 
14028, 14029, 14030, 14031, 14032, 14033, 14034, 14035, 14036, 14037, 14038, 14039, 14040, 14041, 14042, 14043, 
14044, 14045, 14046, 14047, 14048, 14049, 14050, 14051, 14052, 14053, 14054, 14055, 14056, 14057, 14058, 14059, 
14060, 14061, 14062, 14063, 14064, 14065, 14066, 14067, 14068, 14069, 14070, 14071, 14072, 14073, 14074, 14075, 
14076, 14077, 14078, 14079, 14080, 14081, 14082, 14083, 14084, 14085, 14086, 14087, 14088, 14089, 14090, 14091, 
14092, 14093, 14094, 14095, 14096, 14097, 14098, 14099, 14100, 14101, 14102, 14103, 14104, 14105, 14106, 14107, 
14108, 14109, 14110, 14111, 14112, 14113, 14114, 14115, 14116, 14117, 14118, 14119, 14120, 14121, 14122, 14123, 
** ... 410 like lines cut
*Elset, elset=Uel-Set-Plate2_PH, generate
17029, 23955, 1
***************************************************************
*Uel property, elset=Uel-Set-Plate1_PH
0.01, 2.7, 1, 0, 0
*Uel property, elset=Uel-Set-Plate2_PH
0.01, 2.25, 1, 0, 0
**lc, gc, thick, elswt, drswt
***************************************************************
*Elset, elset=umatelem, generate
27607, 41409, 1
***************************************************************
** Section: Uel-Section-Plate
*Solid Section, elset=umatelem, material=Material-Plate
,
** Section: Coh-Section-Center
*Cohesive Section, elset=CohesiveSeam-1-Elements, controls=EC-1, material=Material-Coh, response=TRACTION SEPARATION
, 
*End Part
**  
**
** ASSEMBLY
**
*Assembly, name=Assembly
**  
*Instance, name=Part-1-1, part=Part-1
*End Instance
**  
*Node
      1,          0.5, -0.100000001,           0.
*Node
      2,          0.5,   1.10000002,           0.
*Nset, nset=Set-BTM, instance=Part-1-1
      8, 109494, 109495, 109935, 109936, 109937, 109938, 109939, 109940, 109941, 109942, 109943, 109944, 109945, 110017, 110018
 110019, 110020, 110021, 110022, 110023, 110024, 110025, 110026, 110027, 123586
*Elset, elset=Set-BTM, instance=Part-1-1
34523, 34524, 34532, 34533, 34540, 34549, 34556, 34675, 34758, 35131, 35316, 35480, 37774, 37784, 37789, 37794
37797, 37799, 37800, 37892, 37895, 38200, 39038, 39511
*Nset, nset=Set-RP1
 1,
*Nset, nset=Set-RP2
 2,
*Nset, nset=Set-TOP, instance=Part-1-1
      4, 109492, 109493, 109693, 109694, 109695, 109696, 109697, 109698, 109699, 109700, 109701, 109702, 109703, 109825, 109826
 109827, 109828, 109829, 109830, 109831, 109832, 109833, 109834, 109835, 123587
*Elset, elset=Set-TOP, instance=Part-1-1
27615, 27622, 27623, 27624, 27631, 27638, 27836, 27972, 28040, 28399, 28563, 30738, 30847, 30848, 30857, 30865
30873, 30874, 30882, 30892, 31008, 31273, 31632, 32895
** Constraint: Constraint-1
*Equation
2
Set-BTM, 2, 1.
Set-RP1, 2, -1.
** Constraint: Constraint-2
*Equation
2
Set-TOP, 2, 1.
Set-RP2, 2, -1.
**
*Elset, elset=umatelem, instance=Part-1-1, generate
27607, 41409, 1
**
*End Assembly
***************************************************************
** 
** ELEMENT CONTROLS
** 
*Section Controls, name=EC-1, ELEMENT DELETION=YES, MAX DEGRADATION=0.99, VISCOSITY=0.0001
1., 1., 1.
** 
** MATERIALS
** 
*Material, name=Material-Coh
*Damage Initiation, criterion=MAXS
100.,100.,100.
*Damage Evolution, type=ENERGY, softening=EXPONENTIAL, mixed mode behavior=BK, power=2.5
1.,1.,1.
*Damage Stabilization
0.0001
*Elastic, type=TRACTION
 2.5e+06, 2.5e+06, 2.5e+06
*Material, name=Material-Plate
*Density
 1e-11,
*Depvar
     24,
*User Material, constants=2
 1e-11, 0.3
** ----------------------------------------------------------------
** 
** STEP: Step-1
** 
*Step, name=Step-1, nlgeom=YES, inc=10000
*Static
0.001, 1., 1e-15, 0.001
** 
** BOUNDARY CONDITIONS
** 
** Name: BC-BTM Type: Displacement/Rotation
*Boundary
Set-BTM, 1, 1
Set-BTM, 6, 6
** Name: BC-RP1 Type: Displacement/Rotation
*Boundary
Set-RP1, 2, 2, -0.02
** Name: BC-RP2 Type: Displacement/Rotation
*Boundary
Set-RP2, 2, 2, 0.02
** Name: BC-TOP Type: Displacement/Rotation
*Boundary
Set-TOP, 1, 1
Set-TOP, 6, 6
** 
** OUTPUT REQUESTS
** 
*Restart, write, frequency=0
** 
** FIELD OUTPUT: F-Output-1
** 
*Output, field, variable=PRESELECT, frequency=10
** 
** HISTORY OUTPUT: H-Output-1
** 
*element output, elset=umatelem
SDV
**
*End Step
